
This summary file was generated by TurbSim (from OpenFAST-v3.3.0-1-g4e85fa62-dirty) on 12-Jul-2024 at 16:34:39.


Runtime Options:

         1  Random seed #1
    RANLUX  Type of random number generator
         F  Output binary HH turbulence parameters?
         F  Output formatted turbulence parameters?
         F  Output AeroDyn HH files?
         T  Output AeroDyn FF files?
         F  Output BLADED FF files?
         F  Output tower data?
         F  Output HAWC FF files?
         F  Output formatted FF files?
         T  Output coherent turbulence time step file?
 0 -  NONE  IEC turbulence models scaled to exact specified standard deviation


Turbine/Model Specifications:

        30  Vertical grid-point matrix dimension
        30  Horizontal grid-point matrix dimension
     0.013  Time step [seconds]
   600.000  Analysis time [seconds]
   600.000  Usable output time [seconds]
   150.000  Hub height [m]
   292.000  Grid height [m]
   292.000  Grid width [m]
     0.000  Vertical flow angle [degrees]
     0.000  Horizontal flow angle [degrees]


Meteorological Boundary Conditions:

    IECKAI  IEC Kaimal spectral model
         3  IEC standard: IEC 61400-3 Ed. 1: 2006
         B  IEC turbulence characteristic
       NTM  IEC Normal Turbulence Model
       N/A  IEC Extreme Turbulence Model (ETM) "c" parameter [m/s]
       PL   Wind profile type
   150.000  Reference height [m]
    11.400  Reference wind speed [m/s]
       N/A  Jet height [m]
     0.140  Power law exponent
     0.030  Surface roughness length [m]


Non-IEC Meteorological Boundary Conditions:

       N/A  Site latitude [degrees]
       N/A  Gradient Richardson number
       N/A  Friction or shear velocity [m/s]
       N/A  Mixing layer depth [m]
       N/A  Mean hub u'w' Reynolds stress
       N/A  Mean hub u'v' Reynolds stress
       N/A  Mean hub v'w' Reynolds stress


Spatial Coherence Models:

   GENERAL  u-component coherence model
   GENERAL  v-component coherence model
   GENERAL  w-component coherence model
(   13.750, 0.400E-01)  u-component coherence parameters
(    9.850, 0.150E-02)  v-component coherence parameters
(    9.500, 0.300E-02)  w-component coherence parameters
     0.500  Coherence exponent


You have requested that the following file(s) be generated:

   D:\02_Sungjun\02-project\2-FLS\240620_DLL\GitHub-Example\OpenFAST\wind\1.2case\Rated_1.bts (AeroDyn/TurbSim full-field wind file)


Turbulence Simulation Scaling Parameter Summary:

   Turbulence model used                            =  IEC Kaimal
   Turbulence characteristic                        =  B
   IEC turbulence type                              =  Normal Turbulence Model
   IEC standard                                     =  IEC 61400-3 Ed. 1: 2006
   Mean wind speed at hub height                    =   11.400 m/s
   Expected value of turbulence intensity at 15 m/s =   14.000%
   Characteristic value of standard deviation       =    1.981 m/s
   Turbulence scale                                 =   42.000 m
   u-component integral scale                       =  340.200 m
   Coherency scale                                  =  340.200 m
   Characteristic value of hub turbulence intensity =   17.377%
   Gradient Richardson number                       =    0.000

   Wind profile type                                =  Power law
   Power law exponent                               =    0.140
   Mean shear across rotor disk                     =    0.019 (m/s)/m
   Assumed rotor diameter                           =  292.000 m
   Surface roughness length                         =    0.030 m

   Nyquist frequency of turbulent wind field        =   40.000 Hz

   Number of time steps in the FFT                  =    48000
   Number of time steps output                      =    48000
   Number of points simulated                       =      901


Mean Flow Angles:

   Vertical   =   0.0 degrees
   Horizontal =   0.0 degrees

Mean Wind Speed Profile:

   Height    Wind Speed   Horizontal Angle  Vertical Angle  U-comp (X)   V-comp (Y)   W-comp (Z)
     (m)        (m/s)         (degrees)       (degrees)       (m/s)        (m/s)        (m/s)   
   ------    ----------   ----------------  --------------  ----------   ----------   ----------
    296.0       12.54            0.00            0.00         12.54         0.00         0.00
    285.9       12.48            0.00            0.00         12.48         0.00         0.00
    275.9       12.42            0.00            0.00         12.42         0.00         0.00
    265.8       12.35            0.00            0.00         12.35         0.00         0.00
    255.7       12.28            0.00            0.00         12.28         0.00         0.00
    245.7       12.22            0.00            0.00         12.22         0.00         0.00
    235.6       12.14            0.00            0.00         12.14         0.00         0.00
    225.5       12.07            0.00            0.00         12.07         0.00         0.00
    215.4       11.99            0.00            0.00         11.99         0.00         0.00
    205.4       11.91            0.00            0.00         11.91         0.00         0.00
    195.3       11.83            0.00            0.00         11.83         0.00         0.00
    185.2       11.74            0.00            0.00         11.74         0.00         0.00
    175.2       11.65            0.00            0.00         11.65         0.00         0.00
    165.1       11.55            0.00            0.00         11.55         0.00         0.00
    155.0       11.45            0.00            0.00         11.45         0.00         0.00
    150.0       11.40            0.00            0.00         11.40         0.00         0.00
    145.0       11.35            0.00            0.00         11.35         0.00         0.00
    134.9       11.23            0.00            0.00         11.23         0.00         0.00
    124.8       11.11            0.00            0.00         11.11         0.00         0.00
    114.8       10.98            0.00            0.00         10.98         0.00         0.00
    104.7       10.84            0.00            0.00         10.84         0.00         0.00
     94.6       10.69            0.00            0.00         10.69         0.00         0.00
     84.6       10.52            0.00            0.00         10.52         0.00         0.00
     74.5       10.34            0.00            0.00         10.34         0.00         0.00
     64.4       10.13            0.00            0.00         10.13         0.00         0.00
     54.3        9.89            0.00            0.00          9.89         0.00         0.00
     44.3        9.61            0.00            0.00          9.61         0.00         0.00
     34.2        9.27            0.00            0.00          9.27         0.00         0.00
     24.1        8.83            0.00            0.00          8.83         0.00         0.00
     14.1        8.18            0.00            0.00          8.18         0.00         0.00
      4.0        6.86            0.00            0.00          6.86         0.00         0.00


Harvested Random Seeds after Generation of the Random Numbers:

    602769000 K 1
            0 K 2


Hub-Height Simulated Turbulence Statistical Summary:

   Type of Wind        Min (m/s)   Mean (m/s)    Max (m/s)  Sigma (m/s)       TI (%)
   ----------------    ---------   ----------    ---------  -----------       ------
   Longitudinal (u)         5.25        11.40        16.63        1.887       16.551
   Lateral (v)             -5.50         0.00         5.74        1.682       14.754
   Vertical (w)            -3.38         0.00         4.05        0.969        8.502
   U component              5.25        11.40        16.63        1.887       16.551
   V component             -5.50         0.00         5.74        1.682       14.754
   W component             -3.38         0.00         4.05        0.969        8.502
   Horizontal (U&V)         6.22        11.53        16.66        1.877       16.286
   Total                    6.33        11.57        16.66        1.870       16.167

                       Min Reynolds     Mean Reynolds    Max Reynolds    Correlation
   Product             Stress (m/s)^2   Stress (m/s)^2   Stress (m/s)^2  Coefficient
   ----------------    --------------   --------------   --------------  -----------
   u'w'                    -14.907            -0.066             9.937        -0.036
   u'v'                    -23.288            -0.002            13.372        -0.001
   v'w'                     -9.910             0.061            10.666         0.038


   Friction Velocity (Ustar)  =      0.257 m/s
   Maximum Instantaneous TKE  =     26.118 (m/s)^2
   Maximum Instantaneous CTKE =     12.602 (m/s)^2


Grid Point Variance Summary:

   Y-coord -146.00 -135.93 -125.86 -115.79 -105.72  -95.66  -85.59  -75.52  -65.45  -55.38  -45.31  -35.24  -25.17  -15.10   -5.03    5.03   15.10   25.17   35.24   45.31   55.38   65.45   75.52   85.59   95.66  105.72  115.79  125.86  135.93  146.00

   Height   Standard deviation at grid points for the u component:
   296.00    1.795   1.818   1.921   1.985   1.784   2.082   1.903   1.702   1.820   1.956   2.017   1.960   1.845   1.748   1.744   1.820   1.881   2.046   1.888   1.700   1.898   1.758   2.017   1.891   1.633   1.743   1.972   1.817   1.712   1.868
   285.93    2.052   1.937   2.090   1.796   1.884   1.909   1.951   1.857   1.921   1.846   2.076   1.880   1.884   1.984   1.852   1.927   1.895   1.801   1.761   1.842   1.857   1.749   1.816   1.951   1.733   1.779   1.805   2.126   1.869   1.643
   275.86    1.710   1.925   2.077   1.841   1.785   1.725   1.899   1.766   1.901   1.987   1.713   1.879   1.842   1.883   1.784   2.005   1.998   1.893   1.724   1.718   1.812   1.887   1.874   2.015   1.941   1.925   2.070   2.129   1.690   1.887
   265.79    1.810   1.896   1.978   1.860   1.898   1.881   1.977   1.893   2.034   1.840   1.827   2.075   2.227   1.686   1.951   1.948   1.820   1.806   2.111   2.120   1.992   1.931   1.906   1.824   1.642   1.736   1.897   1.828   2.056   1.949
   255.72    1.820   1.748   1.661   1.709   1.977   2.079   1.894   1.825   2.041   1.932   1.745   1.652   1.784   1.740   1.874   1.924   1.972   1.727   1.891   1.913   1.964   1.841   2.069   1.976   1.946   1.769   1.880   1.688   1.798   1.891
   245.66    1.759   1.897   2.124   1.905   1.696   1.671   1.809   1.930   1.806   2.019   2.301   1.845   2.122   1.984   1.875   1.790   2.012   1.822   1.916   1.975   2.126   2.252   2.093   1.839   1.841   1.903   1.835   2.003   1.876   1.770
   235.59    1.952   1.751   1.732   1.908   1.574   1.779   1.746   1.932   2.004   2.022   2.127   1.915   2.008   1.862   2.015   1.803   1.997   1.880   1.759   1.928   2.096   2.155   2.009   1.979   1.849   2.047   2.025   1.721   2.022   1.787
   225.52    1.727   1.815   2.056   2.088   1.855   2.076   2.146   1.565   1.829   1.746   1.935   1.707   2.040   1.939   2.026   1.931   1.556   1.926   1.905   1.714   1.940   2.165   2.259   1.863   1.889   2.021   1.852   1.772   1.780   1.948
   215.45    1.877   1.973   1.829   1.892   1.885   1.815   1.843   1.598   1.826   1.874   1.784   1.881   1.874   1.891   1.668   1.964   1.775   1.806   1.769   1.846   1.871   1.851   2.028   1.771   1.800   1.928   1.757   1.868   1.884   2.040
   205.38    1.963   1.853   2.052   1.866   1.889   1.956   1.962   1.951   1.793   1.778   1.879   2.004   1.801   1.914   1.704   2.068   2.133   2.082   1.884   1.719   1.982   2.068   1.860   1.871   1.681   1.910   1.856   1.953   1.943   2.004
   195.31    2.037   1.680   1.827   1.791   1.827   1.986   1.960   1.973   1.657   1.744   1.795   1.793   1.901   1.941   1.726   2.032   2.052   2.019   2.078   1.912   1.937   1.981   1.975   1.932   1.822   1.944   1.979   1.749   1.945   1.912
   185.24    1.994   1.997   1.764   1.804   1.972   1.984   1.849   1.959   1.673   2.028   2.092   1.924   1.965   1.932   1.820   1.849   1.912   1.889   1.975   1.829   1.987   1.685   1.972   1.912   1.968   2.016   1.894   1.685   1.905   1.942
   175.17    1.840   1.807   1.832   2.089   1.862   1.934   1.789   1.974   1.953   1.990   1.927   2.135   1.893   2.021   2.060   2.009   2.049   1.719   1.821   2.072   2.018   1.959   1.878   2.065   1.884   1.837   1.823   1.975   1.853   1.757
   165.10    1.870   1.806   1.884   1.852   2.044   1.983   1.750   1.888   1.858   1.874   1.979   1.932   1.866   1.800   1.968   1.784   2.039   1.876   1.781   2.055   1.929   1.990   1.951   1.974   1.689   1.708   1.830   1.895   1.940   1.913
   155.03    1.789   1.991   1.916   1.846   1.886   1.986   2.086   1.828   1.990   1.827   1.838   2.020   2.031   1.992   1.830   1.980   1.948   1.805   1.762   1.913   1.872   1.899   1.831   1.992   1.861   1.767   1.935   1.942   1.976   1.620
   144.97    1.937   1.745   1.976   2.044   1.848   1.933   1.984   2.051   1.898   1.986   1.770   1.952   1.867   1.931   1.836   1.813   1.811   1.765   1.811   1.727   1.860   1.838   1.912   1.890   1.899   1.818   1.789   1.748   1.983   2.016
   134.90    1.884   1.968   1.719   1.734   1.949   1.893   2.010   1.895   1.782   1.908   1.819   1.743   1.960   1.881   1.821   1.797   1.928   1.922   1.931   1.850   1.908   1.915   1.949   2.139   1.866   1.863   1.950   1.859   2.014   1.985
   124.83    1.816   1.939   1.812   1.992   1.902   1.994   2.010   2.012   1.900   1.845   1.940   1.916   1.859   1.789   1.859   1.814   1.845   1.887   1.880   1.811   1.935   1.899   1.823   1.853   1.778   1.766   2.033   1.797   1.839   1.965
   114.76    1.810   1.937   1.946   1.666   1.842   1.969   1.933   1.828   2.021   1.998   1.865   1.819   1.886   1.941   1.842   1.849   1.993   1.910   2.021   1.873   1.878   1.955   2.000   1.945   2.055   1.917   1.840   1.842   1.838   1.962
   104.69    1.823   1.986   1.974   1.939   1.997   1.903   1.923   1.879   1.875   1.937   1.816   1.846   1.956   1.927   1.915   1.699   1.899   2.005   1.815   1.877   1.881   1.661   1.932   1.825   1.947   1.892   1.911   1.872   1.832   1.877
    94.62    1.872   1.996   1.850   1.913   1.832   1.968   1.764   1.820   1.828   1.831   1.871   1.777   1.925   1.922   1.858   1.860   1.822   1.874   1.881   1.925   1.916   1.946   1.902   1.946   1.898   1.839   1.889   1.750   1.927   1.932
    84.55    1.879   1.847   1.969   2.054   1.936   1.877   1.840   1.946   1.872   1.878   1.868   1.861   1.870   1.868   1.866   1.797   1.840   1.858   1.894   1.858   1.889   1.929   1.812   1.902   1.863   1.887   1.913   1.762   1.853   1.900
    74.48    1.877   1.874   1.897   1.866   1.946   1.938   1.957   1.908   1.900   1.962   1.837   1.916   1.863   1.923   1.905   1.960   1.885   1.768   1.852   1.821   1.858   1.957   1.976   1.865   1.852   1.886   1.822   1.963   1.937   1.775
    64.41    1.866   1.844   1.852   1.867   1.902   1.955   1.947   1.826   1.899   1.899   1.871   1.878   1.769   1.861   1.960   1.899   1.859   1.890   1.862   1.853   1.919   1.828   1.924   1.869   1.858   1.879   1.831   1.924   1.917   1.893
    54.34    1.934   1.869   1.853   1.906   1.824   1.877   1.839   1.896   1.909   1.864   1.852   1.849   1.919   1.846   1.894   1.875   1.909   1.931   1.888   1.886   1.895   1.875   1.886   1.896   1.856   1.933   1.902   1.899   1.886   1.857
    44.28    1.890   1.878   1.899   1.876   1.865   1.907   1.850   1.905   1.918   1.862   1.875   1.933   1.861   1.926   1.902   1.846   1.894   1.856   1.860   1.929   1.906   1.900   1.890   1.902   1.884   1.860   1.867   1.867   1.906   1.840
    34.21    1.893   1.878   1.876   1.899   1.878   1.897   1.898   1.862   1.874   1.879   1.870   1.891   1.868   1.881   1.889   1.895   1.888   1.879   1.873   1.848   1.915   1.880   1.890   1.914   1.882   1.884   1.906   1.911   1.852   1.875
    24.14    1.879   1.872   1.893   1.879   1.884   1.872   1.888   1.898   1.888   1.880   1.879   1.892   1.878   1.879   1.887   1.886   1.896   1.904   1.902   1.893   1.880   1.877   1.888   1.895   1.876   1.887   1.899   1.884   1.887   1.895
    14.07    1.886   1.882   1.885   1.888   1.885   1.892   1.882   1.879   1.887   1.880   1.889   1.889   1.879   1.886   1.887   1.888   1.884   1.890   1.888   1.885   1.891   1.885   1.885   1.882   1.879   1.881   1.893   1.884   1.884   1.884
     4.00    1.886   1.886   1.886   1.886   1.886   1.886   1.886   1.886   1.885   1.886   1.886   1.886   1.886   1.886   1.886   1.886   1.886   1.886   1.886   1.886   1.886   1.886   1.886   1.886   1.885   1.885   1.886   1.885   1.886   1.886

   Height   Standard deviation at grid points for the v component:
   296.00    1.579   1.534   1.438   1.388   1.392   1.405   1.448   1.446   1.499   1.554   1.581   1.560   1.593   1.547   1.553   1.514   1.588   1.646   1.612   1.608   1.618   1.622   1.640   1.601   1.655   1.707   1.741   1.752   1.733   1.727
   285.93    1.551   1.537   1.446   1.423   1.420   1.476   1.542   1.569   1.596   1.626   1.659   1.613   1.595   1.603   1.551   1.550   1.589   1.623   1.695   1.652   1.608   1.609   1.588   1.562   1.601   1.666   1.687   1.701   1.703   1.693
   275.86    1.525   1.516   1.455   1.469   1.552   1.579   1.588   1.662   1.672   1.714   1.737   1.701   1.627   1.621   1.602   1.555   1.564   1.612   1.645   1.637   1.612   1.592   1.577   1.541   1.542   1.570   1.576   1.666   1.732   1.656
   265.79    1.437   1.497   1.472   1.469   1.481   1.558   1.614   1.714   1.744   1.730   1.722   1.668   1.688   1.705   1.670   1.629   1.610   1.615   1.612   1.646   1.595   1.574   1.572   1.586   1.581   1.583   1.598   1.616   1.629   1.645
   255.72    1.407   1.442   1.411   1.452   1.497   1.542   1.599   1.653   1.690   1.690   1.639   1.632   1.672   1.724   1.732   1.689   1.687   1.655   1.650   1.603   1.548   1.513   1.511   1.532   1.559   1.618   1.564   1.612   1.634   1.609
   245.66    1.413   1.446   1.450   1.454   1.493   1.553   1.600   1.662   1.620   1.638   1.629   1.638   1.652   1.695   1.729   1.701   1.750   1.728   1.680   1.594   1.581   1.493   1.499   1.505   1.542   1.576   1.588   1.595   1.634   1.617
   235.59    1.422   1.429   1.438   1.445   1.489   1.585   1.604   1.629   1.593   1.661   1.692   1.724   1.730   1.726   1.743   1.720   1.745   1.725   1.723   1.664   1.598   1.518   1.503   1.489   1.528   1.589   1.559   1.563   1.585   1.566
   225.52    1.447   1.471   1.460   1.472   1.536   1.562   1.606   1.615   1.658   1.730   1.775   1.778   1.750   1.750   1.719   1.668   1.711   1.751   1.735   1.693   1.628   1.542   1.541   1.540   1.517   1.581   1.551   1.534   1.555   1.513
   215.45    1.420   1.492   1.526   1.491   1.526   1.560   1.616   1.666   1.727   1.770   1.811   1.829   1.737   1.730   1.650   1.693   1.738   1.753   1.767   1.714   1.670   1.560   1.556   1.568   1.573   1.569   1.598   1.590   1.527   1.463
   205.38    1.380   1.462   1.549   1.564   1.572   1.592   1.678   1.747   1.767   1.751   1.800   1.814   1.743   1.660   1.634   1.696   1.722   1.698   1.725   1.720   1.658   1.617   1.518   1.576   1.520   1.584   1.581   1.600   1.504   1.523
   195.31    1.425   1.480   1.589   1.636   1.662   1.699   1.799   1.800   1.813   1.837   1.806   1.827   1.734   1.669   1.658   1.652   1.640   1.641   1.631   1.661   1.617   1.629   1.550   1.505   1.501   1.531   1.590   1.625   1.592   1.542
   185.24    1.467   1.531   1.615   1.622   1.706   1.813   1.866   1.858   1.883   1.877   1.836   1.818   1.710   1.728   1.670   1.591   1.534   1.590   1.577   1.597   1.602   1.584   1.528   1.513   1.460   1.531   1.598   1.626   1.630   1.560
   175.17    1.494   1.530   1.582   1.679   1.719   1.841   1.877   1.908   1.924   1.918   1.839   1.793   1.779   1.742   1.685   1.602   1.498   1.556   1.554   1.554   1.586   1.543   1.538   1.502   1.484   1.538   1.674   1.628   1.621   1.562
   165.10    1.540   1.513   1.598   1.623   1.688   1.774   1.804   1.858   1.827   1.857   1.861   1.784   1.702   1.688   1.658   1.567   1.541   1.540   1.533   1.527   1.537   1.514   1.479   1.524   1.570   1.615   1.689   1.668   1.630   1.541
   155.03    1.557   1.583   1.585   1.656   1.684   1.684   1.651   1.747   1.743   1.738   1.827   1.784   1.714   1.705   1.642   1.662   1.577   1.585   1.519   1.484   1.465   1.461   1.461   1.533   1.579   1.637   1.671   1.570   1.544   1.524
   144.97    1.579   1.648   1.665   1.745   1.731   1.684   1.552   1.698   1.694   1.736   1.778   1.788   1.736   1.698   1.671   1.702   1.609   1.591   1.493   1.454   1.395   1.390   1.455   1.540   1.578   1.582   1.606   1.542   1.522   1.529
   134.90    1.624   1.711   1.704   1.731   1.685   1.670   1.579   1.650   1.647   1.688   1.769   1.807   1.776   1.720   1.643   1.632   1.583   1.539   1.492   1.460   1.389   1.382   1.466   1.499   1.502   1.524   1.513   1.555   1.544   1.531
   124.83    1.728   1.759   1.707   1.707   1.607   1.620   1.569   1.537   1.580   1.648   1.679   1.702   1.736   1.648   1.634   1.566   1.524   1.484   1.471   1.433   1.406   1.346   1.419   1.432   1.480   1.502   1.478   1.562   1.586   1.573
   114.76    1.733   1.719   1.704   1.638   1.581   1.609   1.554   1.522   1.479   1.614   1.633   1.637   1.611   1.555   1.596   1.498   1.466   1.467   1.409   1.406   1.342   1.299   1.369   1.406   1.480   1.591   1.492   1.571   1.600   1.584
   104.69    1.667   1.628   1.641   1.593   1.582   1.551   1.542   1.515   1.475   1.571   1.576   1.557   1.546   1.552   1.498   1.481   1.400   1.401   1.409   1.354   1.364   1.351   1.372   1.430   1.481   1.534   1.537   1.583   1.619   1.602
    94.62    1.622   1.618   1.543   1.552   1.497   1.487   1.490   1.458   1.444   1.471   1.523   1.503   1.511   1.492   1.406   1.435   1.491   1.496   1.502   1.433   1.419   1.412   1.389   1.456   1.441   1.475   1.524   1.540   1.603   1.653
    84.55    1.562   1.525   1.502   1.547   1.514   1.513   1.454   1.384   1.426   1.437   1.449   1.462   1.476   1.462   1.381   1.444   1.520   1.466   1.439   1.480   1.489   1.500   1.523   1.546   1.476   1.484   1.518   1.584   1.632   1.700
    74.48    1.490   1.533   1.493   1.530   1.546   1.540   1.492   1.410   1.429   1.424   1.420   1.453   1.406   1.431   1.401   1.449   1.437   1.450   1.476   1.418   1.521   1.551   1.640   1.680   1.641   1.570   1.552   1.605   1.629   1.674
    64.41    1.583   1.568   1.477   1.513   1.617   1.667   1.574   1.521   1.441   1.373   1.363   1.386   1.406   1.381   1.367   1.377   1.393   1.416   1.451   1.492   1.599   1.667   1.707   1.731   1.707   1.620   1.614   1.603   1.632   1.668
    54.34    1.621   1.580   1.492   1.512   1.651   1.637   1.599   1.518   1.419   1.365   1.417   1.394   1.458   1.433   1.413   1.461   1.390   1.383   1.474   1.554   1.607   1.644   1.704   1.688   1.717   1.632   1.678   1.627   1.613   1.689
    44.28    1.583   1.560   1.508   1.514   1.554   1.609   1.611   1.539   1.494   1.463   1.442   1.416   1.410   1.446   1.515   1.503   1.486   1.479   1.491   1.562   1.569   1.543   1.601   1.672   1.616   1.615   1.600   1.661   1.669   1.708
    34.21    1.637   1.675   1.557   1.456   1.443   1.487   1.551   1.584   1.565   1.527   1.556   1.531   1.452   1.435   1.505   1.505   1.507   1.532   1.603   1.629   1.581   1.620   1.636   1.633   1.546   1.558   1.564   1.602   1.582   1.694
    24.14    1.664   1.697   1.573   1.426   1.456   1.501   1.489   1.548   1.512   1.477   1.493   1.593   1.517   1.499   1.469   1.491   1.530   1.566   1.692   1.750   1.639   1.655   1.735   1.675   1.602   1.535   1.547   1.563   1.585   1.698
    14.07    1.626   1.608   1.577   1.456   1.482   1.505   1.489   1.485   1.499   1.526   1.516   1.503   1.501   1.567   1.480   1.445   1.529   1.572   1.676   1.826   1.787   1.786   1.807   1.789   1.609   1.574   1.633   1.563   1.561   1.541
     4.00    1.555   1.568   1.630   1.524   1.469   1.567   1.481   1.488   1.422   1.521   1.441   1.490   1.544   1.571   1.562   1.457   1.433   1.561   1.744   1.815   1.727   1.630   1.651   1.734   1.586   1.590   1.554   1.682   1.535   1.485

   Height   Standard deviation at grid points for the w component:
   296.00    0.994   0.988   0.970   0.951   0.957   0.981   0.971   0.961   0.937   0.951   0.962   0.947   0.962   0.969   0.962   0.963   0.953   0.941   0.957   0.978   0.963   0.964   0.941   0.940   0.942   0.950   0.938   0.931   0.902   0.904
   285.93    0.988   0.993   0.967   0.958   0.978   0.992   0.977   0.965   0.966   0.964   0.938   0.949   0.930   0.963   0.989   0.968   0.944   0.952   0.979   0.968   0.977   0.941   0.951   0.923   0.925   0.927   0.938   0.924   0.908   0.896
   275.86    0.978   0.987   0.969   0.947   0.969   0.980   0.966   0.961   0.970   0.940   0.937   0.929   0.952   0.962   0.990   0.979   0.957   0.989   1.010   1.002   0.987   0.983   0.972   0.953   0.938   0.936   0.940   0.956   0.937   0.937
   265.79    0.982   0.986   0.954   0.947   0.958   0.950   0.932   0.957   0.960   0.948   0.965   0.921   0.927   0.960   0.996   0.997   0.976   0.985   1.008   0.996   0.990   0.988   0.996   0.974   0.962   0.969   0.970   0.973   0.966   0.965
   255.72    0.961   0.960   0.952   0.949   0.952   0.930   0.932   0.949   0.963   0.980   0.979   0.920   0.918   0.953   0.976   0.954   0.970   0.976   0.996   0.972   0.976   0.955   0.948   0.963   0.961   0.987   0.980   0.948   0.973   0.937
   245.66    0.954   0.978   0.970   0.988   0.970   0.941   0.944   0.937   0.961   0.997   0.968   0.916   0.908   0.935   0.946   0.933   0.957   0.981   0.994   0.967   0.962   0.963   0.968   0.960   0.941   0.973   0.949   0.938   0.952   0.945
   235.59    0.970   0.977   0.990   0.994   0.952   0.958   0.936   0.946   0.944   0.960   0.949   0.936   0.936   0.946   0.935   0.949   0.966   0.971   1.003   1.007   0.960   0.971   0.993   0.932   0.919   0.935   0.949   0.952   0.958   0.951
   225.52    0.961   0.986   0.984   0.972   0.946   0.953   0.937   0.920   0.949   0.940   0.934   0.934   0.960   0.956   0.963   0.970   0.979   0.999   1.007   0.986   0.980   0.971   0.973   0.935   0.938   0.939   0.951   0.969   0.987   0.972
   215.45    0.945   0.963   0.961   0.963   0.980   0.970   0.961   0.934   0.946   0.961   0.951   0.969   0.971   1.020   0.989   1.005   0.979   0.985   0.984   0.983   0.981   0.992   0.971   0.980   0.940   0.959   0.986   0.978   0.975   0.965
   205.38    0.962   0.964   0.947   0.960   0.994   0.984   0.962   0.975   0.993   0.999   1.013   0.989   1.013   1.027   1.032   1.025   1.007   0.987   0.969   0.966   1.004   0.996   1.001   0.998   0.977   0.992   0.982   0.975   0.952   0.971
   195.31    0.970   0.950   0.934   0.959   1.013   1.014   0.993   1.007   0.999   0.990   0.998   0.995   1.015   1.048   1.045   1.032   1.033   1.010   0.978   0.948   0.987   0.986   1.025   1.008   0.994   0.974   0.979   0.977   0.990   0.982
   185.24    0.952   0.957   0.959   0.968   1.010   1.010   0.989   0.985   0.988   0.992   0.975   0.984   1.007   1.048   1.056   1.063   1.030   0.997   0.950   0.968   0.990   1.011   0.994   1.003   1.006   1.034   1.019   1.000   1.014   1.015
   175.17    0.960   0.963   0.945   0.961   0.991   0.981   0.997   0.994   1.006   0.994   0.995   1.010   1.023   1.033   1.071   1.067   0.998   0.963   0.973   0.963   0.965   1.011   0.987   0.989   0.987   1.002   1.006   0.998   1.003   0.971
   165.10    0.989   0.996   0.973   0.987   1.009   1.006   0.989   1.004   1.006   1.006   0.995   0.997   1.026   1.053   1.043   1.038   1.012   0.955   0.990   0.968   0.941   0.979   0.956   0.961   0.993   1.000   0.980   0.969   0.975   0.969
   155.03    1.008   1.018   1.015   0.993   1.013   1.007   0.997   0.990   0.986   1.023   1.027   1.021   0.999   1.033   1.009   0.986   0.996   0.958   0.976   0.981   0.971   0.980   0.982   0.971   0.978   0.945   0.955   0.962   0.952   0.964
   144.97    0.984   1.013   1.002   1.000   1.008   1.020   1.020   0.993   0.997   1.036   1.019   1.020   1.002   0.997   0.976   0.967   0.991   0.944   0.942   0.967   0.949   0.965   0.957   0.942   0.992   0.960   0.926   0.950   0.941   0.969
   134.90    0.992   0.979   1.006   1.021   1.026   1.022   0.998   0.981   0.975   1.011   1.037   0.991   1.000   0.998   0.977   1.006   0.993   0.992   0.935   0.929   0.954   0.975   0.952   0.959   0.983   0.973   0.928   0.926   0.956   0.993
   124.83    0.970   0.959   0.984   1.020   1.030   1.028   1.012   1.011   1.010   1.003   0.999   0.964   0.963   0.987   1.000   1.025   1.017   0.987   0.946   0.932   0.936   0.962   0.951   0.972   0.996   0.991   0.986   0.947   0.959   1.004
   114.76    0.952   0.951   0.969   0.990   1.004   0.993   0.997   0.998   0.991   0.990   0.984   0.969   0.993   0.976   0.988   0.996   0.968   0.961   0.954   0.952   0.923   0.966   0.956   0.977   0.988   0.990   0.997   0.971   0.980   0.996
   104.69    0.943   0.941   0.943   0.943   0.978   0.981   0.964   0.960   0.982   0.999   1.001   0.990   0.969   0.957   0.982   0.974   0.966   0.976   0.979   0.986   0.982   0.989   0.982   0.951   0.979   0.978   0.987   0.993   0.988   0.992
    94.62    0.960   0.978   0.963   0.937   0.981   0.965   0.939   0.961   0.982   0.972   0.998   0.979   0.976   0.952   0.976   0.980   0.974   0.986   0.992   0.992   1.011   1.011   0.963   0.962   0.958   0.973   0.989   1.029   0.996   0.968
    84.55    0.964   0.933   0.913   0.903   0.968   0.935   0.940   0.920   0.944   0.975   0.969   0.946   0.959   0.971   0.991   1.016   0.984   0.981   0.991   0.982   0.968   0.964   0.947   0.941   0.958   1.001   1.020   1.012   1.006   0.972
    74.48    0.938   0.923   0.920   0.946   0.962   0.982   0.974   0.951   0.957   0.976   0.944   0.904   0.937   0.933   0.964   1.003   1.023   1.019   1.010   1.016   0.978   0.978   0.949   0.927   0.934   0.979   1.032   1.039   1.004   0.980
    64.41    0.914   0.942   0.935   0.969   0.965   0.978   1.003   0.986   0.967   0.961   0.931   0.903   0.914   0.919   0.957   0.991   1.030   1.035   0.994   1.012   0.995   0.994   0.979   0.947   0.926   0.979   1.017   1.016   1.010   1.002
    54.34    0.942   0.978   0.971   0.996   0.978   1.023   1.019   1.034   0.970   0.967   0.922   0.947   0.955   0.959   0.951   0.979   1.004   1.026   0.997   1.014   1.000   1.008   0.983   0.945   0.945   0.953   0.960   0.988   1.001   0.973
    44.28    0.947   0.970   0.978   0.991   0.980   1.015   1.011   1.016   0.977   0.942   0.907   0.937   0.942   0.977   0.970   0.960   0.982   1.013   1.024   0.985   0.973   0.954   0.970   0.966   0.950   0.960   0.969   0.990   0.987   0.972
    34.21    0.979   1.020   1.036   1.029   0.997   1.005   0.987   0.981   0.980   0.952   0.922   0.968   0.947   0.934   0.951   0.922   0.941   0.996   1.035   1.022   0.986   0.955   0.951   0.936   0.968   0.982   0.983   0.990   0.961   0.969
    24.14    1.021   1.002   0.995   1.014   0.988   0.952   0.967   0.998   1.037   0.981   0.973   0.978   0.938   0.903   0.916   0.946   0.955   1.001   1.032   1.025   0.986   0.946   0.935   0.943   0.939   0.980   0.985   0.960   0.957   0.970
    14.07    0.995   1.009   0.983   0.990   1.021   0.963   0.972   1.039   1.036   1.006   1.008   0.995   0.952   0.952   0.922   0.955   0.998   1.006   1.026   0.995   0.991   0.983   0.972   0.977   0.938   0.949   0.977   0.943   0.954   0.977
     4.00    0.979   0.977   0.984   0.973   0.981   0.980   0.982   1.005   1.010   0.999   0.987   0.960   0.936   0.975   0.961   0.960   0.953   0.974   1.016   0.984   0.968   0.954   0.974   1.000   0.974   0.978   0.981   0.958   0.942   0.962

   Mean standard deviation across all grid points:
      u component:    1.890 m/s
      v component:    1.583 m/s
      w component:    0.975 m/s


U-component (X) statistics from the interpolated hub point:

   Mean =  11.3992 m/s
   TI   =   9.6317 %


Processing complete.  490.97 CPU seconds used.
