
This summary file was generated by TurbSim (from OpenFAST-v3.3.0-1-g4e85fa62-dirty) on 12-Jul-2024 at 16:34:45.


Runtime Options:

         2  Random seed #1
    RANLUX  Type of random number generator
         F  Output binary HH turbulence parameters?
         F  Output formatted turbulence parameters?
         F  Output AeroDyn HH files?
         T  Output AeroDyn FF files?
         F  Output BLADED FF files?
         F  Output tower data?
         F  Output HAWC FF files?
         F  Output formatted FF files?
         T  Output coherent turbulence time step file?
 0 -  NONE  IEC turbulence models scaled to exact specified standard deviation


Turbine/Model Specifications:

        30  Vertical grid-point matrix dimension
        30  Horizontal grid-point matrix dimension
     0.013  Time step [seconds]
   600.000  Analysis time [seconds]
   600.000  Usable output time [seconds]
   150.000  Hub height [m]
   292.000  Grid height [m]
   292.000  Grid width [m]
     0.000  Vertical flow angle [degrees]
     0.000  Horizontal flow angle [degrees]


Meteorological Boundary Conditions:

    IECKAI  IEC Kaimal spectral model
         3  IEC standard: IEC 61400-3 Ed. 1: 2006
         B  IEC turbulence characteristic
       NTM  IEC Normal Turbulence Model
       N/A  IEC Extreme Turbulence Model (ETM) "c" parameter [m/s]
       PL   Wind profile type
   150.000  Reference height [m]
    11.400  Reference wind speed [m/s]
       N/A  Jet height [m]
     0.140  Power law exponent
     0.030  Surface roughness length [m]


Non-IEC Meteorological Boundary Conditions:

       N/A  Site latitude [degrees]
       N/A  Gradient Richardson number
       N/A  Friction or shear velocity [m/s]
       N/A  Mixing layer depth [m]
       N/A  Mean hub u'w' Reynolds stress
       N/A  Mean hub u'v' Reynolds stress
       N/A  Mean hub v'w' Reynolds stress


Spatial Coherence Models:

   GENERAL  u-component coherence model
   GENERAL  v-component coherence model
   GENERAL  w-component coherence model
(   13.750, 0.400E-01)  u-component coherence parameters
(    9.850, 0.150E-02)  v-component coherence parameters
(    9.500, 0.300E-02)  w-component coherence parameters
     0.500  Coherence exponent


You have requested that the following file(s) be generated:

   D:\02_Sungjun\02-project\2-FLS\240620_DLL\GitHub-Example\OpenFAST\wind\1.2case\Rated_2.bts (AeroDyn/TurbSim full-field wind file)


Turbulence Simulation Scaling Parameter Summary:

   Turbulence model used                            =  IEC Kaimal
   Turbulence characteristic                        =  B
   IEC turbulence type                              =  Normal Turbulence Model
   IEC standard                                     =  IEC 61400-3 Ed. 1: 2006
   Mean wind speed at hub height                    =   11.400 m/s
   Expected value of turbulence intensity at 15 m/s =   14.000%
   Characteristic value of standard deviation       =    1.981 m/s
   Turbulence scale                                 =   42.000 m
   u-component integral scale                       =  340.200 m
   Coherency scale                                  =  340.200 m
   Characteristic value of hub turbulence intensity =   17.377%
   Gradient Richardson number                       =    0.000

   Wind profile type                                =  Power law
   Power law exponent                               =    0.140
   Mean shear across rotor disk                     =    0.019 (m/s)/m
   Assumed rotor diameter                           =  292.000 m
   Surface roughness length                         =    0.030 m

   Nyquist frequency of turbulent wind field        =   40.000 Hz

   Number of time steps in the FFT                  =    48000
   Number of time steps output                      =    48000
   Number of points simulated                       =      901


Mean Flow Angles:

   Vertical   =   0.0 degrees
   Horizontal =   0.0 degrees

Mean Wind Speed Profile:

   Height    Wind Speed   Horizontal Angle  Vertical Angle  U-comp (X)   V-comp (Y)   W-comp (Z)
     (m)        (m/s)         (degrees)       (degrees)       (m/s)        (m/s)        (m/s)   
   ------    ----------   ----------------  --------------  ----------   ----------   ----------
    296.0       12.54            0.00            0.00         12.54         0.00         0.00
    285.9       12.48            0.00            0.00         12.48         0.00         0.00
    275.9       12.42            0.00            0.00         12.42         0.00         0.00
    265.8       12.35            0.00            0.00         12.35         0.00         0.00
    255.7       12.28            0.00            0.00         12.28         0.00         0.00
    245.7       12.22            0.00            0.00         12.22         0.00         0.00
    235.6       12.14            0.00            0.00         12.14         0.00         0.00
    225.5       12.07            0.00            0.00         12.07         0.00         0.00
    215.4       11.99            0.00            0.00         11.99         0.00         0.00
    205.4       11.91            0.00            0.00         11.91         0.00         0.00
    195.3       11.83            0.00            0.00         11.83         0.00         0.00
    185.2       11.74            0.00            0.00         11.74         0.00         0.00
    175.2       11.65            0.00            0.00         11.65         0.00         0.00
    165.1       11.55            0.00            0.00         11.55         0.00         0.00
    155.0       11.45            0.00            0.00         11.45         0.00         0.00
    150.0       11.40            0.00            0.00         11.40         0.00         0.00
    145.0       11.35            0.00            0.00         11.35         0.00         0.00
    134.9       11.23            0.00            0.00         11.23         0.00         0.00
    124.8       11.11            0.00            0.00         11.11         0.00         0.00
    114.8       10.98            0.00            0.00         10.98         0.00         0.00
    104.7       10.84            0.00            0.00         10.84         0.00         0.00
     94.6       10.69            0.00            0.00         10.69         0.00         0.00
     84.6       10.52            0.00            0.00         10.52         0.00         0.00
     74.5       10.34            0.00            0.00         10.34         0.00         0.00
     64.4       10.13            0.00            0.00         10.13         0.00         0.00
     54.3        9.89            0.00            0.00          9.89         0.00         0.00
     44.3        9.61            0.00            0.00          9.61         0.00         0.00
     34.2        9.27            0.00            0.00          9.27         0.00         0.00
     24.1        8.83            0.00            0.00          8.83         0.00         0.00
     14.1        8.18            0.00            0.00          8.18         0.00         0.00
      4.0        6.86            0.00            0.00          6.86         0.00         0.00


Harvested Random Seeds after Generation of the Random Numbers:

    602769000 K 1
            0 K 2


Hub-Height Simulated Turbulence Statistical Summary:

   Type of Wind        Min (m/s)   Mean (m/s)    Max (m/s)  Sigma (m/s)       TI (%)
   ----------------    ---------   ----------    ---------  -----------       ------
   Longitudinal (u)         5.90        11.40        17.21        1.854       16.263
   Lateral (v)             -6.60        -0.00         5.46        1.633       14.321
   Vertical (w)            -4.04         0.00         3.27        0.982        8.617
   U component              5.90        11.40        17.21        1.854       16.263
   V component             -6.60        -0.00         5.46        1.633       14.321
   W component             -4.04         0.00         3.27        0.982        8.617
   Horizontal (U&V)         5.93        11.52        17.22        1.856       16.121
   Total                    6.00        11.56        17.26        1.852       16.022

                       Min Reynolds     Mean Reynolds    Max Reynolds    Correlation
   Product             Stress (m/s)^2   Stress (m/s)^2   Stress (m/s)^2  Coefficient
   ----------------    --------------   --------------   --------------  -----------
   u'w'                     -9.610             0.080            11.760         0.044
   u'v'                    -20.083            -0.541            11.877        -0.179
   v'w'                    -13.588            -0.125             9.265        -0.078


   Friction Velocity (Ustar)  =      0.283 m/s
   Maximum Instantaneous TKE  =     26.850 (m/s)^2
   Maximum Instantaneous CTKE =     10.770 (m/s)^2


Grid Point Variance Summary:

   Y-coord -146.00 -135.93 -125.86 -115.79 -105.72  -95.66  -85.59  -75.52  -65.45  -55.38  -45.31  -35.24  -25.17  -15.10   -5.03    5.03   15.10   25.17   35.24   45.31   55.38   65.45   75.52   85.59   95.66  105.72  115.79  125.86  135.93  146.00

   Height   Standard deviation at grid points for the u component:
   296.00    1.863   1.894   1.939   2.003   2.005   1.780   2.186   1.611   1.874   1.873   1.962   1.739   1.871   1.829   1.798   1.762   1.931   1.878   1.860   1.866   1.833   1.892   1.578   1.752   2.020   1.768   2.025   1.689   1.815   1.930
   285.93    1.761   1.809   1.991   2.069   1.794   2.100   1.897   1.688   1.855   1.775   1.762   1.915   1.441   1.874   1.816   2.030   1.938   1.882   2.092   1.718   1.904   2.077   1.994   1.813   1.898   2.023   2.110   1.825   1.825   1.795
   275.86    1.910   1.872   1.907   2.044   1.923   2.095   1.908   1.800   1.848   1.664   2.007   1.701   1.847   2.068   2.014   1.962   1.711   1.649   1.793   1.793   1.881   2.094   1.886   2.043   1.958   1.758   2.027   1.897   1.801   1.824
   265.79    1.731   1.629   1.951   1.915   1.946   2.264   1.971   1.987   1.774   1.905   1.845   1.696   1.786   1.907   1.968   1.897   1.995   1.922   1.650   1.681   2.161   2.182   2.097   1.852   1.901   1.876   2.068   1.923   1.703   1.836
   255.72    1.899   1.918   1.931   2.015   1.749   1.991   1.824   1.850   1.907   1.736   1.583   1.929   1.854   1.833   2.026   1.833   1.752   1.821   1.946   1.665   2.052   2.056   1.778   2.016   1.910   2.064   2.089   1.805   1.589   1.724
   245.66    1.752   1.767   1.879   1.899   1.729   1.718   1.679   1.949   1.988   1.791   1.882   1.660   1.906   1.752   1.926   2.018   1.823   1.793   1.870   1.990   1.902   1.906   1.789   1.944   1.961   1.856   1.833   1.958   2.072   1.696
   235.59    1.839   1.683   1.945   2.045   1.949   2.056   1.993   1.820   1.801   1.944   1.694   1.973   1.774   2.005   2.042   1.782   1.844   1.793   1.899   1.855   1.827   1.845   1.822   1.960   1.788   1.741   1.653   1.786   1.888   2.080
   225.52    1.875   1.833   1.898   2.115   1.906   1.903   1.942   1.828   1.644   1.687   1.883   1.806   1.717   1.926   2.143   1.907   1.978   1.714   1.889   1.783   1.838   1.637   1.575   1.847   1.899   1.737   1.904   1.808   1.925   1.775
   215.45    1.741   1.612   1.755   1.919   1.777   1.949   1.983   1.912   1.945   1.790   1.938   2.018   1.951   1.928   1.771   1.907   1.894   2.133   1.734   1.825   1.724   1.892   1.711   1.835   1.823   1.939   1.896   2.045   1.924   1.799
   205.38    1.934   1.863   1.905   2.020   1.688   1.900   1.819   1.835   1.981   1.950   1.658   1.851   1.759   1.968   1.801   1.934   1.989   1.719   1.732   1.845   1.804   1.698   1.830   1.786   1.743   1.974   2.111   1.855   1.799   2.038
   195.31    1.802   1.748   1.746   1.807   2.083   1.682   1.788   1.703   1.820   1.757   1.845   1.942   1.833   1.964   2.007   1.804   1.928   1.988   1.712   2.006   2.024   1.971   1.750   1.836   1.931   1.922   2.048   1.752   1.877   1.859
   185.24    1.755   1.656   1.856   1.615   1.953   1.928   1.855   1.777   1.692   1.912   1.754   1.989   1.871   2.033   1.842   1.888   1.982   1.791   1.908   1.869   2.184   1.948   1.942   1.924   1.924   1.899   1.813   1.844   2.034   2.018
   175.17    1.950   1.957   1.704   1.904   1.760   2.040   2.018   1.770   1.943   1.980   1.802   1.863   1.732   1.890   1.862   1.980   1.954   1.897   1.951   1.803   1.888   1.828   1.907   2.052   2.023   1.950   1.981   2.042   2.058   1.888
   165.10    1.913   1.751   1.847   1.726   1.916   1.901   1.820   1.876   1.667   1.770   1.696   1.855   1.730   1.691   1.900   1.895   2.007   1.866   1.991   1.709   1.780   1.887   2.052   1.789   1.907   1.987   2.072   2.078   1.868   1.826
   155.03    1.850   1.788   1.819   1.973   1.885   1.947   1.784   1.918   1.989   1.891   1.738   1.881   1.832   1.831   1.927   1.679   1.949   1.825   1.768   1.951   1.834   1.821   1.781   1.840   1.867   2.023   1.975   2.036   1.913   1.775
   144.97    1.800   1.758   1.907   1.858   1.974   1.970   1.978   2.037   1.780   1.895   1.988   1.941   1.983   1.845   1.992   1.985   2.020   1.737   1.956   1.913   1.936   1.861   2.025   1.890   1.872   1.856   1.794   2.076   1.970   1.894
   134.90    1.868   2.009   1.864   1.956   1.860   2.010   1.788   1.897   1.916   1.866   1.906   1.827   1.815   1.842   1.999   2.035   1.963   1.893   1.838   1.720   2.003   1.957   1.920   1.830   2.053   1.851   1.833   1.960   1.846   1.887
   124.83    1.851   1.850   1.798   1.950   1.944   1.848   1.834   2.042   1.733   1.992   1.961   1.982   2.032   1.691   1.825   1.897   2.021   1.851   1.892   1.973   1.920   1.968   1.689   1.799   1.919   1.896   1.808   1.894   1.944   2.013
   114.76    1.958   1.798   1.817   1.768   1.869   1.919   2.021   1.991   1.967   1.872   2.017   1.913   2.010   1.789   1.891   1.970   1.822   1.905   2.032   2.002   1.862   1.778   1.951   1.902   1.940   1.750   1.890   1.869   1.904   1.964
   104.69    1.848   1.903   1.805   1.882   1.784   1.957   1.727   1.899   1.870   2.029   2.042   1.847   1.939   1.980   1.892   1.879   1.784   1.724   1.935   1.952   1.783   1.910   1.821   1.898   1.814   1.899   2.005   1.857   1.958   1.949
    94.62    1.886   1.829   1.751   2.000   1.890   1.868   1.858   1.880   1.835   1.852   1.941   1.859   1.906   1.802   1.935   2.035   1.952   1.824   1.879   1.927   1.793   1.955   1.991   1.954   1.867   1.814   1.927   2.054   1.857   1.984
    84.55    1.905   1.959   1.919   1.947   1.874   1.846   1.792   1.886   1.965   1.816   1.936   1.847   1.875   2.038   1.766   1.946   1.849   1.848   1.753   1.953   1.923   1.907   1.910   1.838   1.924   1.846   1.905   1.927   1.859   1.916
    74.48    1.890   1.876   1.809   1.903   1.928   1.859   1.884   1.919   1.891   1.902   1.970   1.857   1.876   1.897   1.953   1.816   1.926   1.819   1.831   1.903   1.837   1.937   1.855   1.872   1.874   1.859   1.916   1.801   1.827   1.884
    64.41    1.836   1.911   1.825   1.939   1.900   1.901   1.822   1.846   1.933   1.937   1.940   1.892   1.860   1.947   1.882   1.922   1.850   1.847   1.924   1.906   1.917   1.887   1.855   1.904   1.866   1.852   1.859   1.900   1.943   1.821
    54.34    1.876   1.892   1.878   1.875   1.904   1.863   1.845   1.903   1.924   1.894   1.910   1.901   1.880   1.874   1.927   1.920   1.925   1.880   1.893   1.931   1.930   1.862   1.827   1.897   1.931   1.918   1.844   1.920   1.849   1.938
    44.28    1.880   1.884   1.867   1.846   1.900   1.885   1.890   1.909   1.861   1.875   1.905   1.898   1.938   1.897   1.914   1.881   1.860   1.872   1.836   1.876   1.850   1.905   1.902   1.861   1.917   1.898   1.888   1.920   1.843   1.925
    34.21    1.873   1.887   1.883   1.883   1.869   1.895   1.877   1.880   1.876   1.932   1.881   1.862   1.868   1.879   1.897   1.881   1.886   1.887   1.885   1.897   1.896   1.910   1.876   1.900   1.894   1.875   1.882   1.869   1.932   1.873
    24.14    1.885   1.873   1.867   1.883   1.902   1.890   1.881   1.890   1.901   1.892   1.898   1.883   1.883   1.897   1.870   1.886   1.884   1.893   1.868   1.877   1.886   1.868   1.885   1.893   1.908   1.870   1.901   1.879   1.891   1.882
    14.07    1.884   1.884   1.885   1.888   1.888   1.887   1.883   1.879   1.886   1.883   1.885   1.882   1.884   1.889   1.887   1.886   1.883   1.886   1.885   1.880   1.882   1.881   1.884   1.888   1.891   1.886   1.885   1.889   1.885   1.880
     4.00    1.886   1.886   1.886   1.886   1.886   1.886   1.886   1.886   1.886   1.886   1.886   1.886   1.886   1.886   1.886   1.886   1.886   1.886   1.886   1.886   1.886   1.885   1.886   1.886   1.886   1.886   1.886   1.886   1.885   1.886

   Height   Standard deviation at grid points for the v component:
   296.00    1.408   1.458   1.538   1.569   1.527   1.479   1.477   1.484   1.487   1.492   1.515   1.470   1.488   1.385   1.401   1.419   1.411   1.456   1.500   1.542   1.524   1.518   1.477   1.449   1.430   1.483   1.471   1.508   1.487   1.492
   285.93    1.415   1.432   1.503   1.558   1.566   1.486   1.459   1.483   1.508   1.490   1.510   1.474   1.449   1.407   1.393   1.424   1.396   1.431   1.484   1.506   1.523   1.524   1.495   1.440   1.456   1.495   1.519   1.509   1.492   1.486
   275.86    1.414   1.450   1.528   1.569   1.553   1.531   1.477   1.440   1.429   1.490   1.495   1.437   1.457   1.437   1.381   1.394   1.418   1.459   1.467   1.497   1.530   1.552   1.490   1.472   1.517   1.512   1.503   1.464   1.513   1.515
   265.79    1.480   1.467   1.517   1.565   1.572   1.492   1.421   1.423   1.429   1.499   1.524   1.477   1.480   1.405   1.420   1.419   1.481   1.486   1.563   1.553   1.493   1.514   1.512   1.474   1.485   1.513   1.506   1.449   1.481   1.529
   255.72    1.547   1.530   1.516   1.484   1.554   1.513   1.457   1.434   1.427   1.500   1.520   1.493   1.464   1.489   1.463   1.443   1.459   1.521   1.559   1.514   1.505   1.514   1.471   1.474   1.495   1.519   1.541   1.485   1.497   1.543
   245.66    1.526   1.529   1.567   1.521   1.515   1.453   1.432   1.415   1.440   1.495   1.495   1.496   1.472   1.472   1.428   1.427   1.461   1.513   1.545   1.576   1.536   1.495   1.490   1.488   1.549   1.561   1.568   1.575   1.577   1.577
   235.59    1.466   1.526   1.539   1.538   1.480   1.469   1.452   1.419   1.394   1.460   1.525   1.470   1.463   1.448   1.439   1.450   1.483   1.479   1.482   1.514   1.520   1.488   1.443   1.493   1.535   1.560   1.547   1.581   1.579   1.558
   225.52    1.521   1.550   1.534   1.555   1.507   1.436   1.451   1.447   1.391   1.438   1.513   1.501   1.471   1.459   1.453   1.510   1.514   1.471   1.466   1.487   1.485   1.443   1.432   1.448   1.506   1.462   1.475   1.518   1.503   1.495
   215.45    1.552   1.553   1.536   1.546   1.545   1.533   1.509   1.482   1.492   1.549   1.566   1.521   1.478   1.445   1.405   1.447   1.446   1.470   1.471   1.464   1.515   1.447   1.419   1.419   1.461   1.478   1.492   1.493   1.444   1.441
   205.38    1.549   1.566   1.584   1.588   1.600   1.598   1.615   1.543   1.488   1.587   1.634   1.574   1.529   1.433   1.410   1.443   1.431   1.402   1.487   1.472   1.454   1.411   1.436   1.410   1.419   1.458   1.470   1.519   1.484   1.513
   195.31    1.543   1.574   1.534   1.592   1.613   1.666   1.633   1.582   1.568   1.628   1.646   1.591   1.595   1.567   1.527   1.512   1.403   1.397   1.470   1.508   1.466   1.418   1.427   1.449   1.475   1.487   1.479   1.486   1.560   1.600
   185.24    1.462   1.465   1.540   1.586   1.666   1.690   1.685   1.657   1.644   1.641   1.686   1.679   1.597   1.629   1.629   1.551   1.497   1.432   1.477   1.501   1.478   1.497   1.468   1.500   1.534   1.497   1.461   1.542   1.617   1.664
   175.17    1.503   1.536   1.565   1.585   1.671   1.675   1.705   1.698   1.705   1.712   1.687   1.658   1.606   1.654   1.589   1.600   1.540   1.499   1.457   1.465   1.531   1.535   1.519   1.531   1.568   1.483   1.517   1.572   1.630   1.672
   165.10    1.520   1.622   1.589   1.598   1.634   1.692   1.747   1.776   1.780   1.776   1.712   1.648   1.630   1.619   1.569   1.562   1.543   1.537   1.486   1.460   1.478   1.524   1.553   1.584   1.551   1.512   1.524   1.570   1.655   1.731
   155.03    1.607   1.669   1.669   1.659   1.641   1.652   1.695   1.753   1.742   1.751   1.715   1.661   1.656   1.664   1.603   1.591   1.534   1.528   1.421   1.390   1.383   1.480   1.528   1.522   1.561   1.527   1.500   1.532   1.640   1.701
   144.97    1.691   1.723   1.717   1.711   1.730   1.666   1.693   1.718   1.684   1.635   1.624   1.627   1.683   1.711   1.657   1.638   1.610   1.525   1.470   1.417   1.394   1.460   1.511   1.487   1.518   1.554   1.566   1.573   1.604   1.658
   134.90    1.626   1.664   1.711   1.692   1.670   1.629   1.613   1.690   1.685   1.622   1.622   1.598   1.675   1.736   1.657   1.593   1.596   1.516   1.473   1.395   1.388   1.543   1.538   1.527   1.540   1.593   1.640   1.572   1.559   1.588
   124.83    1.623   1.650   1.619   1.663   1.604   1.529   1.602   1.627   1.675   1.642   1.619   1.636   1.685   1.781   1.717   1.705   1.612   1.528   1.427   1.403   1.451   1.517   1.549   1.500   1.552   1.634   1.633   1.569   1.616   1.628
   114.76    1.625   1.629   1.638   1.584   1.606   1.532   1.558   1.557   1.582   1.579   1.598   1.679   1.737   1.734   1.800   1.723   1.600   1.541   1.471   1.468   1.508   1.565   1.534   1.522   1.566   1.614   1.576   1.581   1.547   1.590
   104.69    1.564   1.644   1.608   1.545   1.516   1.459   1.533   1.542   1.528   1.511   1.586   1.671   1.741   1.729   1.745   1.659   1.560   1.556   1.574   1.468   1.498   1.561   1.608   1.578   1.597   1.566   1.554   1.502   1.488   1.542
    94.62    1.496   1.626   1.645   1.548   1.502   1.475   1.505   1.537   1.539   1.520   1.579   1.632   1.705   1.748   1.724   1.638   1.544   1.517   1.468   1.487   1.508   1.527   1.596   1.590   1.572   1.548   1.524   1.464   1.523   1.575
    84.55    1.444   1.491   1.546   1.546   1.509   1.581   1.568   1.588   1.591   1.522   1.518   1.545   1.604   1.592   1.600   1.563   1.504   1.387   1.366   1.373   1.477   1.531   1.595   1.544   1.576   1.551   1.464   1.445   1.531   1.593
    74.48    1.449   1.461   1.484   1.542   1.524   1.575   1.580   1.619   1.576   1.553   1.577   1.494   1.550   1.594   1.582   1.530   1.476   1.489   1.451   1.456   1.518   1.562   1.568   1.544   1.533   1.519   1.485   1.498   1.566   1.591
    64.41    1.469   1.524   1.543   1.536   1.545   1.548   1.505   1.546   1.638   1.610   1.551   1.562   1.587   1.578   1.520   1.542   1.546   1.517   1.530   1.533   1.586   1.551   1.558   1.510   1.526   1.516   1.536   1.507   1.531   1.584
    54.34    1.537   1.587   1.647   1.572   1.538   1.547   1.488   1.533   1.558   1.622   1.582   1.602   1.622   1.592   1.599   1.591   1.637   1.587   1.539   1.543   1.599   1.589   1.535   1.482   1.486   1.554   1.532   1.485   1.497   1.531
    44.28    1.569   1.544   1.576   1.547   1.480   1.516   1.452   1.476   1.527   1.573   1.553   1.574   1.598   1.653   1.619   1.619   1.635   1.619   1.658   1.657   1.621   1.679   1.626   1.489   1.472   1.527   1.534   1.573   1.513   1.499
    34.21    1.617   1.684   1.640   1.527   1.463   1.451   1.463   1.504   1.551   1.480   1.543   1.558   1.580   1.670   1.720   1.705   1.646   1.643   1.627   1.651   1.667   1.673   1.591   1.521   1.462   1.561   1.557   1.616   1.627   1.584
    24.14    1.505   1.617   1.619   1.450   1.479   1.557   1.561   1.540   1.536   1.459   1.526   1.563   1.663   1.764   1.664   1.603   1.636   1.575   1.646   1.715   1.666   1.586   1.472   1.527   1.505   1.530   1.474   1.508   1.546   1.590
    14.07    1.545   1.513   1.580   1.480   1.500   1.529   1.525   1.623   1.567   1.445   1.507   1.602   1.587   1.613   1.591   1.637   1.655   1.626   1.604   1.675   1.618   1.514   1.527   1.494   1.565   1.531   1.532   1.556   1.460   1.568
     4.00    1.555   1.545   1.663   1.619   1.561   1.531   1.585   1.659   1.745   1.654   1.577   1.469   1.519   1.546   1.633   1.666   1.629   1.622   1.578   1.615   1.520   1.517   1.565   1.650   1.530   1.583   1.579   1.549   1.476   1.595

   Height   Standard deviation at grid points for the w component:
   296.00    0.906   0.910   0.934   0.955   1.006   1.052   1.029   1.021   1.006   0.994   0.982   0.983   0.972   0.967   0.965   0.962   0.959   0.963   0.982   0.994   1.007   0.987   0.969   0.933   0.935   0.981   0.991   0.967   0.968   0.965
   285.93    0.939   0.957   0.991   0.988   0.996   1.021   1.019   1.031   1.028   1.026   0.986   0.987   0.994   0.993   0.995   0.989   0.981   0.983   0.975   0.970   0.967   0.986   0.981   0.950   0.960   0.999   1.003   0.963   0.940   0.965
   275.86    0.969   0.980   0.989   0.988   1.004   1.010   1.014   0.978   1.006   1.017   1.014   1.009   1.038   1.006   0.995   1.001   0.999   0.978   0.984   0.959   0.961   0.978   0.964   0.943   0.961   0.978   0.980   0.938   0.933   0.948
   265.79    0.975   0.966   0.968   1.003   1.021   1.001   1.018   1.015   1.016   1.017   1.020   1.027   1.026   1.023   1.019   1.024   1.023   1.003   0.996   0.980   0.972   0.973   0.997   0.971   0.950   0.959   0.956   0.930   0.945   0.951
   255.72    1.000   0.989   1.020   1.014   1.044   1.048   1.040   1.009   0.999   0.988   0.988   1.024   1.013   0.998   1.031   1.022   1.032   1.016   0.984   0.979   0.981   1.007   1.011   0.988   0.948   0.952   0.951   0.924   0.959   0.950
   245.66    0.996   1.021   1.022   1.029   1.022   1.027   1.020   0.994   0.985   0.966   0.968   0.991   1.000   0.975   1.035   1.042   1.030   1.009   0.982   0.981   0.983   0.981   0.971   0.974   0.952   0.953   0.969   0.936   0.927   0.949
   235.59    0.998   1.013   1.019   1.009   1.010   1.011   1.006   0.974   0.955   0.960   0.962   0.982   0.986   0.987   1.037   1.046   1.048   0.985   0.979   0.984   0.976   0.969   0.956   0.946   0.929   0.967   0.982   0.987   0.980   0.980
   225.52    0.989   1.016   1.037   1.010   0.989   1.019   1.009   0.965   0.947   0.968   1.001   0.983   0.990   1.003   1.027   1.051   1.054   0.993   0.975   0.993   0.992   0.996   0.960   0.940   0.940   0.961   0.965   0.990   1.002   1.001
   215.45    0.972   1.017   1.038   0.993   0.984   0.991   0.995   0.975   0.973   0.988   1.013   1.023   0.992   0.998   1.014   1.038   1.020   1.013   0.967   0.983   0.961   0.981   1.000   0.954   0.936   0.940   0.954   0.973   0.993   1.004
   205.38    0.962   0.986   1.010   0.986   0.958   0.983   0.992   0.995   0.973   0.988   0.996   0.983   0.993   1.000   1.022   1.002   0.986   1.000   0.979   0.975   0.955   0.976   0.993   0.961   0.932   0.941   0.947   0.970   1.001   1.028
   195.31    0.974   0.973   0.982   0.985   0.980   1.007   1.012   1.011   0.991   0.980   0.963   0.993   0.992   1.002   1.007   0.981   0.956   0.965   0.970   0.971   0.948   0.977   0.960   0.956   0.915   0.916   0.939   0.960   1.011   1.032
   185.24    0.946   0.971   0.991   0.972   0.977   0.981   0.988   1.027   1.033   0.996   0.974   0.979   0.994   0.998   0.992   0.973   0.961   0.981   0.979   0.975   0.949   0.966   0.941   0.926   0.900   0.918   0.963   0.991   1.016   1.020
   175.17    0.923   0.958   0.980   0.962   0.979   0.970   0.994   1.016   1.053   1.013   0.994   0.990   1.013   0.967   0.976   0.984   0.974   0.971   0.967   0.956   0.943   0.930   0.937   0.946   0.912   0.923   0.940   0.967   1.013   1.041
   165.10    0.927   0.966   0.990   0.971   0.966   0.986   0.996   1.030   1.038   1.032   0.997   0.985   0.981   0.958   0.971   0.992   0.969   0.949   0.974   0.957   0.932   0.904   0.924   0.951   0.939   0.919   0.894   0.961   0.996   1.005
   155.03    0.957   0.971   0.995   0.974   0.990   0.994   0.995   1.013   1.030   1.026   1.004   0.972   0.965   0.983   0.974   0.969   0.957   0.970   0.983   0.945   0.936   0.938   0.957   0.967   0.965   0.948   0.912   0.966   0.979   0.978
   144.97    0.973   0.968   0.968   0.977   0.998   1.004   0.983   0.978   1.021   1.055   0.995   0.986   0.984   0.980   1.005   0.979   1.000   1.020   1.037   0.982   0.958   0.978   0.985   0.977   0.970   0.947   0.953   0.988   0.965   0.958
   134.90    0.981   0.995   0.977   0.981   1.002   0.991   0.992   1.003   1.028   1.036   0.999   0.983   0.945   0.938   0.968   0.983   1.006   1.031   1.021   0.984   0.966   0.963   0.960   0.975   0.966   0.957   0.952   0.976   0.976   0.957
   124.83    0.985   0.975   0.998   0.985   0.978   0.977   0.973   0.983   0.986   0.984   0.972   0.951   0.938   0.943   0.949   0.989   1.000   1.015   1.002   1.004   0.994   0.958   0.921   0.936   0.948   0.921   0.919   0.954   0.969   0.941
   114.76    0.992   0.975   0.986   0.962   0.951   0.946   0.974   0.982   0.988   0.979   0.942   0.923   0.933   0.945   0.954   0.972   1.003   0.995   1.002   0.970   0.968   0.991   0.962   0.935   0.937   0.919   0.914   0.958   0.958   0.932
   104.69    0.980   0.967   0.969   0.960   0.935   0.971   0.963   0.968   0.966   0.950   0.908   0.904   0.912   0.934   0.952   0.975   0.993   0.971   0.999   1.021   0.988   0.982   0.958   0.960   0.967   0.964   0.954   0.944   0.951   0.964
    94.62    0.999   0.958   0.936   0.942   0.977   0.963   0.986   0.950   0.937   0.920   0.919   0.884   0.919   0.958   0.984   0.969   0.980   0.994   1.017   1.035   1.006   0.995   0.982   0.960   0.962   0.955   0.974   0.958   0.947   0.975
    84.55    0.955   0.957   0.964   0.966   0.983   0.986   0.979   0.993   0.978   0.944   0.914   0.915   0.948   0.923   0.917   0.962   0.968   1.000   0.998   0.995   1.008   1.001   0.967   0.941   0.962   0.998   0.978   0.984   0.998   1.014
    74.48    0.928   0.943   0.957   0.950   0.955   0.993   0.997   1.022   1.006   0.961   0.924   0.958   0.993   0.926   0.902   0.934   0.968   0.962   0.984   0.984   0.977   0.972   0.993   0.956   0.968   0.974   0.974   1.016   1.043   1.050
    64.41    0.955   0.966   0.957   0.954   0.962   0.955   0.964   0.992   1.001   0.992   0.931   0.971   0.953   0.941   0.941   0.912   0.933   0.930   0.935   0.960   0.949   0.950   0.999   0.964   0.959   0.951   0.979   1.035   1.045   1.050
    54.34    0.988   0.986   0.969   1.001   0.922   0.934   0.969   1.000   0.971   0.975   0.974   0.997   0.943   0.977   0.953   0.931   0.945   0.970   0.946   0.946   0.931   0.996   1.038   1.006   0.959   0.923   0.984   1.005   1.017   1.004
    44.28    0.966   0.959   0.954   0.950   0.913   0.931   0.951   0.949   0.966   0.988   1.005   0.997   0.973   0.962   0.932   0.922   0.999   1.022   1.015   0.972   0.963   1.013   1.030   1.058   0.964   0.927   0.946   0.973   0.986   1.002
    34.21    0.974   0.972   0.978   0.930   0.889   0.949   0.964   0.981   0.991   1.017   1.043   1.021   0.997   0.939   0.934   0.934   0.969   1.004   1.005   1.003   0.976   0.998   1.003   1.039   0.987   0.973   0.972   0.986   0.973   0.994
    24.14    1.018   0.996   0.979   1.000   0.978   1.017   0.989   0.960   0.973   1.040   1.029   1.026   1.036   0.975   0.932   0.941   0.967   0.957   0.998   0.998   0.999   0.976   0.983   1.015   0.999   0.995   0.991   1.011   1.006   0.969
    14.07    1.008   0.974   0.935   0.935   1.016   1.012   0.991   0.973   1.007   1.032   0.980   1.001   1.014   0.997   0.942   0.949   0.942   0.979   0.975   0.975   0.989   0.966   0.969   1.012   1.043   1.058   1.002   0.990   0.968   0.989
     4.00    0.979   0.975   0.978   0.930   0.984   1.021   0.956   0.971   0.995   1.007   1.021   0.956   0.991   0.965   0.976   0.981   1.006   0.992   0.961   0.979   0.976   0.999   1.009   1.020   0.979   1.029   0.937   0.960   0.988   1.009

   Mean standard deviation across all grid points:
      u component:    1.882 m/s
      v component:    1.545 m/s
      w component:    0.979 m/s


U-component (X) statistics from the interpolated hub point:

   Mean =  11.3992 m/s
   TI   =   8.9609 %


Processing complete.  497.89 CPU seconds used.
