
This summary file was generated by TurbSim (from OpenFAST-v3.3.0-1-g4e85fa62-dirty) on 12-Jul-2024 at 16:34:49.


Runtime Options:

         3  Random seed #1
    RANLUX  Type of random number generator
         F  Output binary HH turbulence parameters?
         F  Output formatted turbulence parameters?
         F  Output AeroDyn HH files?
         T  Output AeroDyn FF files?
         F  Output BLADED FF files?
         F  Output tower data?
         F  Output HAWC FF files?
         F  Output formatted FF files?
         T  Output coherent turbulence time step file?
 0 -  NONE  IEC turbulence models scaled to exact specified standard deviation


Turbine/Model Specifications:

        30  Vertical grid-point matrix dimension
        30  Horizontal grid-point matrix dimension
     0.013  Time step [seconds]
   600.000  Analysis time [seconds]
   600.000  Usable output time [seconds]
   150.000  Hub height [m]
   292.000  Grid height [m]
   292.000  Grid width [m]
     0.000  Vertical flow angle [degrees]
     0.000  Horizontal flow angle [degrees]


Meteorological Boundary Conditions:

    IECKAI  IEC Kaimal spectral model
         3  IEC standard: IEC 61400-3 Ed. 1: 2006
         B  IEC turbulence characteristic
       NTM  IEC Normal Turbulence Model
       N/A  IEC Extreme Turbulence Model (ETM) "c" parameter [m/s]
       PL   Wind profile type
   150.000  Reference height [m]
    11.400  Reference wind speed [m/s]
       N/A  Jet height [m]
     0.140  Power law exponent
     0.030  Surface roughness length [m]


Non-IEC Meteorological Boundary Conditions:

       N/A  Site latitude [degrees]
       N/A  Gradient Richardson number
       N/A  Friction or shear velocity [m/s]
       N/A  Mixing layer depth [m]
       N/A  Mean hub u'w' Reynolds stress
       N/A  Mean hub u'v' Reynolds stress
       N/A  Mean hub v'w' Reynolds stress


Spatial Coherence Models:

   GENERAL  u-component coherence model
   GENERAL  v-component coherence model
   GENERAL  w-component coherence model
(   13.750, 0.400E-01)  u-component coherence parameters
(    9.850, 0.150E-02)  v-component coherence parameters
(    9.500, 0.300E-02)  w-component coherence parameters
     0.500  Coherence exponent


You have requested that the following file(s) be generated:

   D:\02_Sungjun\02-project\2-FLS\240620_DLL\GitHub-Example\OpenFAST\wind\1.2case\Rated_3.bts (AeroDyn/TurbSim full-field wind file)


Turbulence Simulation Scaling Parameter Summary:

   Turbulence model used                            =  IEC Kaimal
   Turbulence characteristic                        =  B
   IEC turbulence type                              =  Normal Turbulence Model
   IEC standard                                     =  IEC 61400-3 Ed. 1: 2006
   Mean wind speed at hub height                    =   11.400 m/s
   Expected value of turbulence intensity at 15 m/s =   14.000%
   Characteristic value of standard deviation       =    1.981 m/s
   Turbulence scale                                 =   42.000 m
   u-component integral scale                       =  340.200 m
   Coherency scale                                  =  340.200 m
   Characteristic value of hub turbulence intensity =   17.377%
   Gradient Richardson number                       =    0.000

   Wind profile type                                =  Power law
   Power law exponent                               =    0.140
   Mean shear across rotor disk                     =    0.019 (m/s)/m
   Assumed rotor diameter                           =  292.000 m
   Surface roughness length                         =    0.030 m

   Nyquist frequency of turbulent wind field        =   40.000 Hz

   Number of time steps in the FFT                  =    48000
   Number of time steps output                      =    48000
   Number of points simulated                       =      901


Mean Flow Angles:

   Vertical   =   0.0 degrees
   Horizontal =   0.0 degrees

Mean Wind Speed Profile:

   Height    Wind Speed   Horizontal Angle  Vertical Angle  U-comp (X)   V-comp (Y)   W-comp (Z)
     (m)        (m/s)         (degrees)       (degrees)       (m/s)        (m/s)        (m/s)   
   ------    ----------   ----------------  --------------  ----------   ----------   ----------
    296.0       12.54            0.00            0.00         12.54         0.00         0.00
    285.9       12.48            0.00            0.00         12.48         0.00         0.00
    275.9       12.42            0.00            0.00         12.42         0.00         0.00
    265.8       12.35            0.00            0.00         12.35         0.00         0.00
    255.7       12.28            0.00            0.00         12.28         0.00         0.00
    245.7       12.22            0.00            0.00         12.22         0.00         0.00
    235.6       12.14            0.00            0.00         12.14         0.00         0.00
    225.5       12.07            0.00            0.00         12.07         0.00         0.00
    215.4       11.99            0.00            0.00         11.99         0.00         0.00
    205.4       11.91            0.00            0.00         11.91         0.00         0.00
    195.3       11.83            0.00            0.00         11.83         0.00         0.00
    185.2       11.74            0.00            0.00         11.74         0.00         0.00
    175.2       11.65            0.00            0.00         11.65         0.00         0.00
    165.1       11.55            0.00            0.00         11.55         0.00         0.00
    155.0       11.45            0.00            0.00         11.45         0.00         0.00
    150.0       11.40            0.00            0.00         11.40         0.00         0.00
    145.0       11.35            0.00            0.00         11.35         0.00         0.00
    134.9       11.23            0.00            0.00         11.23         0.00         0.00
    124.8       11.11            0.00            0.00         11.11         0.00         0.00
    114.8       10.98            0.00            0.00         10.98         0.00         0.00
    104.7       10.84            0.00            0.00         10.84         0.00         0.00
     94.6       10.69            0.00            0.00         10.69         0.00         0.00
     84.6       10.52            0.00            0.00         10.52         0.00         0.00
     74.5       10.34            0.00            0.00         10.34         0.00         0.00
     64.4       10.13            0.00            0.00         10.13         0.00         0.00
     54.3        9.89            0.00            0.00          9.89         0.00         0.00
     44.3        9.61            0.00            0.00          9.61         0.00         0.00
     34.2        9.27            0.00            0.00          9.27         0.00         0.00
     24.1        8.83            0.00            0.00          8.83         0.00         0.00
     14.1        8.18            0.00            0.00          8.18         0.00         0.00
      4.0        6.86            0.00            0.00          6.86         0.00         0.00


Harvested Random Seeds after Generation of the Random Numbers:

    602769000 K 1
            0 K 2


Hub-Height Simulated Turbulence Statistical Summary:

   Type of Wind        Min (m/s)   Mean (m/s)    Max (m/s)  Sigma (m/s)       TI (%)
   ----------------    ---------   ----------    ---------  -----------       ------
   Longitudinal (u)         4.64        11.40        17.99        1.863       16.346
   Lateral (v)             -4.79        -0.00         5.15        1.495       13.113
   Vertical (w)            -3.86        -0.00         3.83        0.930        8.161
   U component              4.64        11.40        17.99        1.863       16.346
   V component             -4.79        -0.00         5.15        1.495       13.113
   W component             -3.86        -0.00         3.83        0.930        8.161
   Horizontal (U&V)         4.65        11.50        18.01        1.837       15.972
   Total                    4.69        11.54        18.02        1.834       15.894

                       Min Reynolds     Mean Reynolds    Max Reynolds    Correlation
   Product             Stress (m/s)^2   Stress (m/s)^2   Stress (m/s)^2  Coefficient
   ----------------    --------------   --------------   --------------  -----------
   u'w'                     -9.950             0.095            11.120         0.055
   u'v'                    -14.860             0.154            15.566         0.055
   v'w'                    -10.490            -0.021             9.781        -0.015


   Friction Velocity (Ustar)  =      0.309 m/s
   Maximum Instantaneous TKE  =     23.118 (m/s)^2
   Maximum Instantaneous CTKE =      9.984 (m/s)^2


Grid Point Variance Summary:

   Y-coord -146.00 -135.93 -125.86 -115.79 -105.72  -95.66  -85.59  -75.52  -65.45  -55.38  -45.31  -35.24  -25.17  -15.10   -5.03    5.03   15.10   25.17   35.24   45.31   55.38   65.45   75.52   85.59   95.66  105.72  115.79  125.86  135.93  146.00

   Height   Standard deviation at grid points for the u component:
   296.00    1.757   1.901   1.845   2.041   2.039   2.017   1.949   2.034   1.781   1.760   1.726   1.578   1.728   1.788   1.952   1.936   1.890   1.911   1.901   1.885   2.015   1.891   1.780   1.915   1.858   1.817   2.187   1.865   1.776   1.889
   285.93    1.826   1.755   1.904   1.894   1.874   1.817   1.930   2.033   1.771   1.803   1.767   1.823   1.833   1.831   2.059   2.001   2.106   1.996   1.748   1.857   1.966   1.984   1.944   2.027   1.734   1.899   1.812   1.574   1.900   1.949
   275.86    1.823   1.704   1.604   1.884   1.954   1.843   1.828   1.899   1.981   1.980   1.965   1.962   1.976   1.759   1.636   1.647   1.707   1.817   1.868   1.787   1.671   1.669   1.771   1.720   1.792   1.910   1.753   1.884   1.916   2.015
   265.79    1.760   1.572   1.762   1.913   2.017   1.789   1.809   2.000   1.853   1.850   1.829   1.783   1.977   1.875   1.976   1.674   1.773   2.045   2.126   1.700   1.917   1.769   2.063   2.065   2.040   1.838   1.837   1.955   1.640   1.752
   255.72    1.797   1.889   1.947   1.719   1.937   1.669   1.822   1.702   1.831   1.885   1.980   1.739   1.863   2.158   1.902   1.887   1.873   1.854   2.150   1.583   1.759   1.794   1.784   1.947   2.116   1.666   1.953   1.726   1.989   1.649
   245.66    1.987   1.875   1.862   1.892   1.989   1.567   1.691   1.835   1.627   1.929   1.928   1.716   1.852   2.008   1.944   1.945   1.830   2.041   1.819   1.928   1.930   2.066   1.816   1.853   1.725   1.829   1.892   1.947   1.675   1.779
   235.59    1.870   2.109   1.801   1.793   1.891   1.928   1.740   1.937   1.782   1.749   1.925   1.851   1.771   1.691   1.806   1.903   1.868   2.043   2.110   1.904   1.869   1.793   2.012   2.034   1.959   1.963   1.953   1.716   1.878   1.799
   225.52    1.893   1.969   2.017   2.095   1.848   1.874   1.894   1.847   1.835   1.857   1.847   1.928   1.883   2.002   1.996   1.713   1.827   1.725   1.835   1.806   1.795   1.918   1.695   2.074   2.047   1.882   1.828   1.758   1.841   1.918
   215.45    1.867   2.034   2.071   1.876   1.774   1.738   1.825   1.727   1.878   1.904   1.962   1.676   1.767   1.815   2.014   1.847   1.872   1.952   2.165   1.856   1.909   1.944   1.930   1.789   1.823   2.144   1.971   1.789   1.890   1.850
   205.38    1.767   1.983   2.088   1.866   1.721   1.817   1.747   1.943   1.644   1.835   2.046   1.902   1.914   1.951   1.972   1.859   1.920   1.950   1.861   2.041   1.920   1.947   1.806   1.759   1.890   1.840   1.879   1.708   1.774   2.021
   195.31    1.812   1.873   1.887   1.841   1.859   1.911   1.843   2.031   1.876   1.935   1.757   1.829   1.921   2.036   1.918   1.738   1.866   1.991   1.998   1.911   1.874   1.622   1.860   1.876   1.859   1.963   1.801   1.774   1.868   2.045
   185.24    1.983   1.839   1.658   1.807   1.716   1.854   1.868   1.888   1.855   1.929   1.648   1.830   1.908   1.841   1.937   1.650   1.978   1.909   1.940   1.709   1.892   1.909   1.870   1.886   2.047   1.781   1.836   1.994   1.869   2.062
   175.17    1.866   1.843   1.852   1.905   1.814   1.863   1.868   1.714   1.893   1.858   1.946   1.820   1.912   1.987   1.747   2.082   1.828   1.927   1.960   1.965   1.819   1.842   2.024   1.965   1.832   1.999   1.707   1.904   1.959   1.949
   165.10    1.822   1.789   1.757   1.833   1.947   1.771   1.899   2.067   1.894   1.869   1.939   1.631   1.918   1.837   1.849   2.079   1.911   1.812   1.906   2.005   1.936   1.740   1.835   1.952   2.015   1.923   1.831   1.952   1.956   1.817
   155.03    1.841   1.993   2.026   2.097   1.790   1.916   1.901   1.970   1.874   1.866   1.813   1.747   1.793   1.705   1.947   1.783   1.837   1.819   1.830   1.784   1.836   1.917   1.860   1.795   1.836   1.775   1.800   1.927   1.986   1.791
   144.97    1.875   1.757   1.889   1.946   1.691   1.833   1.859   1.762   1.907   1.768   2.108   1.965   1.934   1.927   1.797   1.933   1.859   2.020   1.784   1.965   2.065   1.957   1.900   1.926   1.954   1.865   1.806   1.984   1.840   1.947
   134.90    1.778   1.763   1.951   1.951   1.964   1.996   1.926   1.936   1.913   1.857   2.038   1.880   1.891   1.842   1.849   1.810   1.864   1.958   1.838   2.001   1.881   1.905   1.865   1.871   1.794   1.876   1.724   2.043   1.906   1.985
   124.83    1.915   1.812   1.897   1.961   1.815   1.696   1.821   1.954   1.957   1.913   1.873   1.853   1.821   1.988   1.916   1.875   1.892   1.970   1.853   1.843   1.909   1.886   1.754   1.894   2.017   1.856   1.890   1.908   1.880   1.775
   114.76    1.825   1.800   1.937   1.884   1.813   1.831   1.940   2.028   1.991   2.029   2.027   1.899   1.985   1.914   1.888   1.879   2.078   1.781   1.800   1.945   1.938   1.971   1.992   1.937   1.829   1.781   1.772   1.883   1.800   1.838
   104.69    1.774   1.897   1.948   1.876   1.905   1.742   1.848   1.864   1.783   1.825   1.813   1.869   1.891   1.847   1.905   1.931   1.977   1.802   1.853   1.837   1.843   1.998   1.753   1.848   1.906   1.968   1.910   1.928   1.849   1.876
    94.62    1.851   1.939   1.986   1.921   1.969   1.930   1.949   1.923   2.038   1.921   1.863   1.909   1.841   1.998   1.890   1.797   1.936   1.860   1.952   1.935   1.888   1.860   1.887   1.804   1.869   1.864   1.817   1.723   1.903   1.886
    84.55    1.925   1.877   1.972   1.735   1.803   1.948   1.773   1.848   1.945   1.912   1.892   1.882   1.796   1.830   1.927   1.792   1.859   1.836   1.957   2.011   1.834   1.880   1.833   1.971   1.915   1.982   1.911   1.838   1.877   1.849
    74.48    1.958   1.800   1.877   1.941   1.880   1.872   1.923   1.962   1.939   1.892   1.831   1.832   1.913   1.919   1.950   1.908   1.811   1.826   1.839   1.828   1.925   1.933   1.788   1.943   1.955   1.974   1.835   1.979   1.951   1.859
    64.41    1.835   1.857   1.934   1.901   1.878   1.868   1.884   1.858   1.864   1.843   1.888   1.843   1.915   1.865   1.921   1.860   1.892   1.833   1.852   1.926   1.905   1.860   1.911   1.890   1.936   1.995   1.917   1.978   1.869   1.850
    54.34    1.882   1.905   1.876   1.862   1.889   1.907   1.889   1.870   1.837   1.881   1.854   1.927   1.947   1.850   1.922   1.887   1.934   1.897   1.896   1.910   1.871   1.900   1.905   1.895   1.870   1.932   1.894   1.877   1.931   1.920
    44.28    1.886   1.924   1.902   1.850   1.874   1.875   1.912   1.870   1.885   1.912   1.882   1.860   1.895   1.837   1.904   1.878   1.901   1.929   1.890   1.872   1.915   1.906   1.952   1.920   1.899   1.918   1.881   1.876   1.932   1.870
    34.21    1.896   1.881   1.893   1.906   1.908   1.862   1.881   1.895   1.891   1.911   1.909   1.847   1.877   1.887   1.896   1.864   1.870   1.879   1.887   1.881   1.870   1.905   1.833   1.899   1.870   1.852   1.886   1.869   1.896   1.910
    24.14    1.885   1.882   1.887   1.877   1.864   1.883   1.881   1.888   1.892   1.879   1.906   1.888   1.888   1.904   1.895   1.890   1.889   1.894   1.885   1.891   1.883   1.889   1.893   1.892   1.888   1.885   1.875   1.889   1.885   1.885
    14.07    1.885   1.885   1.888   1.890   1.889   1.888   1.884   1.885   1.885   1.884   1.884   1.884   1.886   1.886   1.887   1.885   1.884   1.888   1.884   1.884   1.891   1.882   1.885   1.883   1.884   1.884   1.884   1.882   1.889   1.883
     4.00    1.886   1.886   1.886   1.886   1.886   1.886   1.885   1.886   1.886   1.886   1.886   1.885   1.886   1.886   1.886   1.886   1.886   1.886   1.886   1.886   1.885   1.886   1.886   1.886   1.886   1.886   1.885   1.886   1.886   1.886

   Height   Standard deviation at grid points for the v component:
   296.00    1.449   1.464   1.414   1.427   1.409   1.439   1.368   1.387   1.433   1.470   1.481   1.532   1.532   1.556   1.540   1.528   1.482   1.482   1.442   1.433   1.403   1.406   1.379   1.394   1.415   1.453   1.477   1.527   1.571   1.566
   285.93    1.492   1.454   1.435   1.404   1.457   1.422   1.365   1.400   1.438   1.448   1.524   1.581   1.550   1.546   1.512   1.475   1.432   1.424   1.434   1.408   1.436   1.475   1.453   1.419   1.435   1.420   1.465   1.532   1.597   1.608
   275.86    1.466   1.471   1.437   1.426   1.445   1.446   1.404   1.382   1.401   1.466   1.535   1.546   1.511   1.511   1.512   1.523   1.498   1.475   1.433   1.425   1.439   1.484   1.503   1.482   1.477   1.441   1.463   1.536   1.614   1.602
   265.79    1.413   1.447   1.440   1.424   1.420   1.420   1.389   1.386   1.433   1.420   1.483   1.540   1.510   1.538   1.587   1.529   1.545   1.548   1.503   1.476   1.480   1.517   1.528   1.519   1.514   1.486   1.459   1.488   1.560   1.561
   255.72    1.357   1.378   1.395   1.370   1.378   1.411   1.451   1.427   1.466   1.454   1.483   1.531   1.511   1.510   1.588   1.591   1.590   1.607   1.550   1.539   1.529   1.501   1.524   1.547   1.548   1.496   1.446   1.453   1.501   1.524
   245.66    1.355   1.383   1.408   1.420   1.387   1.409   1.479   1.480   1.466   1.471   1.462   1.527   1.545   1.590   1.616   1.603   1.606   1.642   1.611   1.571   1.564   1.500   1.505   1.549   1.561   1.507   1.481   1.487   1.536   1.566
   235.59    1.383   1.413   1.448   1.445   1.445   1.465   1.488   1.475   1.443   1.429   1.424   1.463   1.547   1.590   1.638   1.612   1.586   1.600   1.621   1.560   1.564   1.547   1.567   1.533   1.539   1.551   1.515   1.523   1.546   1.591
   225.52    1.393   1.399   1.434   1.471   1.498   1.496   1.496   1.500   1.484   1.500   1.482   1.505   1.516   1.542   1.550   1.562   1.561   1.609   1.615   1.535   1.528   1.573   1.549   1.531   1.527   1.533   1.584   1.546   1.514   1.541
   215.45    1.408   1.430   1.477   1.539   1.507   1.458   1.450   1.477   1.485   1.473   1.486   1.449   1.441   1.439   1.477   1.485   1.530   1.570   1.545   1.518   1.528   1.530   1.511   1.509   1.505   1.498   1.480   1.546   1.539   1.564
   205.38    1.378   1.383   1.471   1.556   1.570   1.504   1.454   1.447   1.424   1.406   1.405   1.384   1.418   1.417   1.438   1.470   1.479   1.551   1.553   1.529   1.518   1.470   1.449   1.461   1.445   1.435   1.507   1.512   1.524   1.562
   195.31    1.381   1.379   1.486   1.556   1.558   1.483   1.452   1.443   1.429   1.416   1.395   1.348   1.377   1.412   1.469   1.471   1.495   1.502   1.523   1.528   1.474   1.416   1.472   1.501   1.525   1.502   1.484   1.486   1.523   1.528
   185.24    1.444   1.411   1.472   1.525   1.528   1.464   1.402   1.398   1.375   1.387   1.381   1.420   1.436   1.468   1.494   1.480   1.492   1.489   1.511   1.459   1.420   1.455   1.552   1.583   1.646   1.534   1.500   1.533   1.512   1.504
   175.17    1.544   1.435   1.457   1.513   1.544   1.511   1.464   1.439   1.406   1.398   1.424   1.488   1.505   1.500   1.441   1.445   1.465   1.436   1.457   1.454   1.480   1.496   1.543   1.633   1.653   1.627   1.566   1.600   1.657   1.611
   165.10    1.599   1.525   1.501   1.533   1.538   1.554   1.495   1.476   1.453   1.445   1.460   1.456   1.520   1.525   1.423   1.404   1.425   1.427   1.452   1.469   1.534   1.500   1.588   1.655   1.639   1.662   1.663   1.630   1.709   1.663
   155.03    1.614   1.538   1.524   1.560   1.619   1.623   1.597   1.532   1.516   1.525   1.494   1.547   1.541   1.498   1.424   1.417   1.333   1.387   1.438   1.471   1.492   1.566   1.633   1.712   1.695   1.687   1.656   1.626   1.585   1.607
   144.97    1.619   1.562   1.524   1.545   1.618   1.709   1.617   1.618   1.597   1.663   1.594   1.570   1.595   1.558   1.531   1.504   1.432   1.402   1.443   1.470   1.513   1.609   1.656   1.643   1.635   1.597   1.617   1.613   1.508   1.499
   134.90    1.598   1.580   1.533   1.540   1.576   1.672   1.670   1.685   1.675   1.710   1.649   1.677   1.682   1.615   1.632   1.617   1.534   1.502   1.528   1.541   1.556   1.557   1.612   1.570   1.580   1.540   1.535   1.489   1.448   1.424
   124.83    1.521   1.583   1.528   1.532   1.610   1.678   1.759   1.810   1.779   1.723   1.641   1.643   1.683   1.692   1.595   1.582   1.609   1.625   1.554   1.508   1.473   1.497   1.529   1.525   1.549   1.449   1.464   1.423   1.373   1.389
   114.76    1.545   1.544   1.539   1.597   1.639   1.657   1.810   1.812   1.742   1.678   1.667   1.698   1.692   1.625   1.523   1.551   1.603   1.601   1.550   1.555   1.466   1.535   1.611   1.589   1.538   1.476   1.455   1.359   1.347   1.329
   104.69    1.614   1.591   1.572   1.587   1.664   1.678   1.750   1.868   1.830   1.769   1.772   1.780   1.675   1.591   1.506   1.565   1.573   1.535   1.536   1.552   1.550   1.537   1.601   1.580   1.548   1.500   1.451   1.408   1.327   1.285
    94.62    1.658   1.570   1.553   1.686   1.691   1.711   1.821   1.884   1.936   1.884   1.861   1.750   1.749   1.632   1.575   1.592   1.573   1.511   1.495   1.548   1.569   1.557   1.561   1.553   1.538   1.527   1.489   1.393   1.303   1.230
    84.55    1.636   1.566   1.616   1.715   1.676   1.696   1.805   1.869   1.900   1.916   1.858   1.810   1.795   1.741   1.630   1.544   1.525   1.630   1.625   1.587   1.598   1.567   1.558   1.594   1.569   1.554   1.513   1.411   1.300   1.245
    74.48    1.582   1.552   1.642   1.674   1.617   1.654   1.706   1.760   1.822   1.851   1.875   1.843   1.786   1.782   1.686   1.605   1.556   1.605   1.649   1.620   1.666   1.548   1.489   1.503   1.544   1.471   1.457   1.443   1.339   1.315
    64.41    1.540   1.536   1.589   1.638   1.598   1.605   1.706   1.757   1.785   1.818   1.831   1.855   1.865   1.819   1.693   1.631   1.636   1.680   1.726   1.722   1.658   1.532   1.481   1.426   1.466   1.484   1.413   1.395   1.404   1.400
    54.34    1.546   1.530   1.517   1.605   1.566   1.514   1.600   1.725   1.711   1.781   1.776   1.761   1.791   1.810   1.687   1.649   1.726   1.762   1.808   1.759   1.732   1.637   1.535   1.546   1.568   1.509   1.403   1.397   1.450   1.422
    44.28    1.534   1.477   1.467   1.552   1.563   1.505   1.537   1.654   1.750   1.698   1.700   1.732   1.781   1.762   1.736   1.687   1.709   1.739   1.825   1.817   1.780   1.747   1.618   1.556   1.541   1.431   1.387   1.467   1.421   1.446
    34.21    1.563   1.422   1.481   1.509   1.652   1.621   1.674   1.706   1.634   1.677   1.629   1.729   1.736   1.701   1.663   1.624   1.624   1.563   1.699   1.786   1.870   1.752   1.730   1.632   1.538   1.382   1.367   1.380   1.377   1.413
    24.14    1.511   1.414   1.442   1.566   1.678   1.720   1.905   1.779   1.703   1.653   1.633   1.676   1.623   1.628   1.556   1.489   1.537   1.520   1.591   1.653   1.772   1.756   1.659   1.627   1.556   1.579   1.453   1.364   1.362   1.355
    14.07    1.562   1.469   1.486   1.621   1.718   1.801   1.946   1.809   1.682   1.655   1.621   1.668   1.629   1.630   1.603   1.509   1.505   1.555   1.570   1.540   1.632   1.724   1.751   1.605   1.512   1.538   1.518   1.467   1.406   1.443
     4.00    1.555   1.539   1.512   1.556   1.716   1.772   1.689   1.758   1.728   1.720   1.773   1.559   1.500   1.564   1.564   1.565   1.579   1.605   1.588   1.503   1.481   1.621   1.748   1.649   1.550   1.604   1.524   1.556   1.416   1.522

   Height   Standard deviation at grid points for the w component:
   296.00    0.963   0.958   0.970   0.990   0.999   0.988   0.989   1.001   1.018   1.028   1.029   1.012   1.029   1.052   1.053   1.045   1.040   1.059   1.056   1.023   0.996   0.974   0.985   0.971   0.953   0.957   0.985   0.988   1.001   1.007
   285.93    0.976   0.982   0.994   0.998   1.005   1.021   0.996   0.984   0.989   1.020   1.027   1.051   1.056   1.077   1.072   1.066   1.041   1.031   1.015   1.004   0.979   0.978   0.977   0.974   0.964   1.004   0.984   0.986   1.017   1.024
   275.86    0.998   0.968   0.975   0.993   0.988   0.977   1.002   1.005   1.004   0.987   1.012   1.077   1.102   1.078   1.082   1.072   1.074   1.055   1.012   0.985   0.994   0.991   0.987   0.999   0.999   1.016   0.989   1.003   1.021   1.019
   265.79    1.000   0.981   0.979   0.974   0.956   0.971   0.996   1.015   1.023   0.983   1.016   1.084   1.089   1.086   1.111   1.116   1.081   1.066   1.022   1.004   0.997   0.995   0.989   0.994   1.017   1.037   1.026   0.987   0.974   0.986
   255.72    0.994   0.967   0.967   0.961   0.966   0.979   0.990   0.996   1.014   1.007   1.026   1.040   1.071   1.075   1.091   1.100   1.081   1.043   0.991   0.998   1.015   1.017   1.010   1.000   1.035   1.021   1.007   0.974   0.966   0.976
   245.66    0.967   0.973   0.961   0.971   0.979   0.986   0.996   1.022   1.024   1.000   1.004   1.015   1.041   1.058   1.052   1.080   1.065   1.015   0.993   0.963   1.005   1.018   1.013   1.024   1.033   1.035   1.022   0.986   0.990   0.997
   235.59    0.954   0.953   0.968   0.954   0.965   0.981   1.010   1.033   1.032   1.011   0.990   1.004   1.024   1.064   1.076   1.058   1.036   1.011   0.974   0.992   1.013   1.017   1.022   1.020   1.029   1.040   1.018   1.004   1.009   1.024
   225.52    0.962   0.954   0.957   0.976   1.001   1.010   1.026   1.060   1.056   1.013   0.985   0.985   1.016   1.009   1.035   1.013   0.999   0.995   0.978   1.002   1.021   1.012   0.990   1.000   1.008   1.009   0.994   1.015   1.029   1.025
   215.45    0.942   0.963   0.962   0.971   0.992   1.002   1.025   1.042   1.047   1.021   1.001   0.965   0.971   0.969   0.964   0.971   0.999   0.967   0.985   0.981   1.017   1.008   0.971   0.991   0.998   0.987   0.992   0.999   1.016   0.980
   205.38    0.951   0.964   0.955   0.961   0.977   0.995   1.025   1.023   1.005   0.973   0.971   0.951   0.941   0.908   0.908   0.948   0.960   0.960   0.980   0.978   0.973   0.988   0.998   0.986   0.979   1.003   1.010   1.002   0.999   0.978
   195.31    0.989   0.996   0.943   0.955   0.966   0.960   0.975   0.979   0.982   0.971   0.954   0.963   0.949   0.919   0.920   0.930   0.956   0.987   0.989   0.984   0.953   0.962   0.962   0.997   0.971   0.974   1.023   1.004   1.019   0.999
   185.24    1.016   1.015   0.971   0.941   0.963   0.954   0.949   0.930   0.955   0.950   0.975   0.969   0.972   0.913   0.905   0.944   0.987   0.994   1.013   1.009   0.988   0.985   0.973   0.982   0.963   0.990   1.016   1.001   1.011   0.993
   175.17    1.030   1.014   0.967   0.964   0.957   0.937   0.910   0.915   0.913   0.949   0.960   0.949   0.931   0.900   0.910   0.935   1.001   1.008   0.994   1.001   0.990   1.009   1.012   0.980   0.992   0.987   1.025   1.010   1.012   0.988
   165.10    1.004   0.990   0.994   0.987   0.935   0.931   0.907   0.925   0.948   0.955   0.951   0.936   0.918   0.936   0.936   0.934   0.963   0.948   0.970   0.998   0.991   1.017   1.010   0.973   0.992   1.006   1.021   1.034   1.002   0.967
   155.03    1.001   1.026   0.988   0.981   0.957   0.923   0.922   0.936   0.973   0.960   0.947   0.921   0.903   0.918   0.921   0.934   0.949   0.940   0.947   0.989   1.031   1.000   0.994   0.972   0.987   0.996   0.991   1.022   0.999   0.972
   144.97    0.996   1.023   1.012   0.979   0.958   0.919   0.934   0.951   0.967   0.944   0.933   0.919   0.888   0.916   0.923   0.932   0.938   0.928   0.970   0.995   1.039   1.029   0.990   0.960   0.978   0.986   0.975   1.024   1.009   1.005
   134.90    0.986   1.012   1.019   1.027   0.998   0.950   0.948   0.995   0.959   0.939   0.958   0.941   0.915   0.930   0.928   0.960   0.951   0.960   0.988   1.024   1.031   1.025   1.008   0.993   0.984   0.963   0.952   0.988   1.014   1.000
   124.83    1.005   1.009   0.999   0.986   0.981   0.944   0.929   0.947   0.950   0.927   0.932   0.948   0.949   0.955   0.957   0.986   0.982   1.018   1.061   1.091   1.102   1.053   1.016   0.999   0.970   0.959   0.942   0.945   0.969   0.988
   114.76    0.989   0.982   0.975   0.986   0.982   0.972   0.941   0.974   0.956   0.906   0.921   0.912   0.949   0.957   0.958   0.955   0.998   1.018   1.049   1.104   1.094   1.069   1.010   0.989   0.948   0.943   0.949   0.991   0.992   0.980
   104.69    0.977   0.957   0.991   1.007   0.987   0.988   0.973   0.973   0.951   0.919   0.927   0.926   0.923   0.941   0.954   0.958   0.982   0.996   1.015   1.063   1.085   1.072   1.014   1.004   0.950   0.924   0.952   0.999   0.989   0.975
    94.62    0.985   0.953   0.983   1.001   1.001   1.002   0.990   0.987   0.965   0.940   0.935   0.926   0.949   0.944   0.947   0.928   0.975   0.979   0.973   0.992   1.022   1.033   1.014   0.998   0.978   0.945   0.961   0.959   0.983   0.983
    84.55    0.990   0.976   0.961   1.023   1.028   0.971   1.005   1.015   0.988   0.978   0.938   0.954   0.960   0.953   0.948   0.943   0.958   0.990   1.008   0.993   1.001   1.012   1.011   0.984   0.960   0.950   0.953   0.977   0.976   0.955
    74.48    0.963   0.955   0.974   0.988   0.998   0.999   1.024   1.013   0.989   0.967   0.975   0.982   0.990   0.971   0.947   0.940   0.960   1.017   1.025   0.986   0.974   0.987   0.990   1.002   0.985   0.995   0.972   0.961   0.950   0.951
    64.41    0.963   0.974   0.965   0.967   0.989   1.010   1.025   1.003   0.958   0.989   1.000   1.011   0.999   0.936   0.945   0.934   0.966   0.998   0.993   0.995   0.986   0.976   1.011   1.004   1.013   1.003   0.984   0.966   0.945   0.903
    54.34    0.991   0.966   1.005   1.024   0.998   1.008   1.000   0.985   0.987   0.988   1.006   1.031   1.020   0.966   0.935   0.948   0.953   0.977   0.981   1.017   1.010   0.971   0.999   1.005   1.009   1.014   0.991   0.987   0.971   0.888
    44.28    0.999   0.952   0.976   1.031   1.012   1.008   0.995   1.020   1.037   0.999   1.003   1.009   0.976   0.944   0.963   0.956   0.989   1.009   1.028   1.031   1.021   0.987   0.981   1.000   0.979   0.960   1.008   1.004   1.002   0.955
    34.21    0.957   0.946   0.967   1.002   0.992   1.009   0.977   0.972   1.019   1.018   0.964   1.001   1.006   0.970   0.974   1.006   1.026   1.033   1.035   1.024   0.994   1.019   1.004   0.991   0.982   0.971   1.001   1.012   1.003   0.979
    24.14    0.959   0.991   0.980   0.980   0.967   0.978   0.990   0.976   0.986   1.012   0.994   1.014   1.014   1.010   1.018   1.052   1.038   1.014   0.997   0.980   0.991   1.037   1.009   0.967   0.968   0.963   0.982   0.988   1.023   0.972
    14.07    0.993   1.012   0.987   0.970   0.954   0.986   1.007   1.007   1.033   1.007   0.985   0.948   0.988   1.014   1.015   1.064   0.998   0.985   0.975   0.975   0.982   0.996   0.964   0.911   0.990   1.003   1.002   0.994   1.039   1.037
     4.00    0.979   0.986   0.977   0.951   0.967   0.982   0.972   0.985   1.022   1.011   0.939   0.978   1.002   0.980   0.963   1.021   0.994   0.980   0.962   0.975   0.976   0.984   0.955   0.981   0.982   1.019   1.004   1.003   1.028   1.001

   Mean standard deviation across all grid points:
      u component:    1.880 m/s
      v component:    1.549 m/s
      w component:    0.989 m/s


U-component (X) statistics from the interpolated hub point:

   Mean =  11.3992 m/s
   TI   =  10.8530 %


Processing complete.  493.42 CPU seconds used.
